25

O     4.61001  -0.04988  -1.35322
C     3.75440  -0.60342  -0.47290
C     2.41033   0.02943  -0.40254
C     1.51458  -0.42548   0.48346
C     0.08464  -0.02539   0.62841
C    -0.78376  -1.29596   0.43287
C    -2.22045  -0.98277  -0.00692
C    -2.69046   0.36999   0.51214
C    -1.82236   1.52078  -0.01613
C    -0.37249   1.09511  -0.29434
O     4.09084  -1.55196   0.18130
H     4.20150   0.71618  -1.77246
H     2.16257   0.83774  -1.09961
H     1.86046  -1.24001   1.13387
H    -0.05252   0.31987   1.67196
H    -0.78339  -1.86814   1.37429
H    -0.30400  -1.94650  -0.31677
H    -2.28325  -0.99149  -1.10874
H    -2.89593  -1.78141   0.33845
H    -3.74445   0.53954   0.23947
H    -2.65897   0.35363   1.61556
H    -1.84160   2.35295   0.70636
H    -2.25832   1.92374  -0.94434
H    -0.27623   0.74043  -1.33559
H     0.29865   1.96301  -0.19470
