20

O     3.90174  -1.33413   0.74972
C     2.97160  -1.55791  -0.20117
C     1.86909  -0.57131  -0.31353
C     1.92361   0.69705   0.14443
C     0.90442   1.72937   0.08257
C    -0.44494   1.59160   0.10708
C    -1.21989   0.37951   0.23696
C    -2.56681   0.37206   0.26137
C    -3.41386  -0.83987   0.41891
O     3.04678  -2.52355  -0.91064
H     3.62166  -0.60484   1.31521
H     1.01890  -0.93208  -0.89498
H     2.86704   1.03687   0.59581
H     1.29253   2.75334   0.07044
H    -1.03041   2.51748   0.06669
H    -0.68969  -0.57113   0.34686
H    -3.09060   1.33155   0.15368
H    -4.10639  -0.95660  -0.43200
H    -2.80634  -1.75276   0.49842
H    -4.04856  -0.76473   1.31887
