24

C    -2.97363  -0.80108  -0.52397
C    -1.62375  -0.16443  -0.18373
C    -1.68889   0.34894   1.23837
O    -2.32444   1.52399   1.31866
O    -1.27532  -0.22378   2.21405
C    -0.44976  -1.13232  -0.36800
C     0.88532  -0.43922  -0.29305
C     1.47355   0.09067  -1.44791
C     2.66622   0.80899  -1.38138
C     3.29031   1.01375  -0.15154
C     2.72142   0.48044   1.00334
C     1.53357  -0.24429   0.93337
H    -2.97930  -1.15354  -1.56633
H    -3.17166  -1.66595   0.12614
H    -3.79331  -0.07915  -0.39780
H    -1.47540   0.71299  -0.83419
H    -2.34793   1.76067   2.25869
H    -0.52311  -1.91849   0.39902
H    -0.55824  -1.62048  -1.34947
H     0.98842  -0.06957  -2.41616
H     3.11374   1.21284  -2.29294
H     4.22380   1.57832  -0.09420
H     3.20763   0.63315   1.97027
H     1.08047  -0.65245   1.83865
