23

C    -3.56073  -0.56640  -0.65906
C    -2.51688   0.30428   0.01466
C    -1.08532   0.03234  -0.42561
C    -0.08124   0.92883   0.28070
C     1.37202   0.77199  -0.14550
C     1.93184  -0.62019   0.09986
C     3.42811  -0.77552   0.01510
O     4.07225   0.37760  -0.22346
O     4.00921  -1.81952   0.15440
H    -3.56078  -0.42121  -1.75200
H    -4.57084  -0.32884  -0.29155
H    -3.38008  -1.63676  -0.46398
H    -2.57998   0.16998   1.10989
H    -2.74928   1.36792  -0.17438
H    -1.00137   0.17506  -1.51952
H    -0.84599  -1.02945  -0.23281
H    -0.37807   1.98104   0.12461
H    -0.15431   0.74917   1.37021
H     1.48547   1.03565  -1.21087
H     1.98460   1.50049   0.40531
H     1.51432  -1.36571  -0.59487
H     1.65102  -0.98715   1.10312
H     5.01613   0.15638  -0.25315
