15

O     2.76668   1.05810  -0.20711
C     2.09308   0.07510  -0.02546
C     0.60837   0.05721  -0.01574
C    -0.11488  -1.11964   0.20777
C    -1.50643  -1.08662   0.20952
C    -2.17560   0.11730  -0.01026
C    -1.45571   1.29203  -0.23317
C    -0.06533   1.26336  -0.23640
O     2.63307  -1.13237   0.19273
H     0.42249  -2.05137   0.38912
H    -2.07280  -2.00223   0.39352
H    -3.26838   0.14130  -0.00772
H    -1.98525   2.23003  -0.41480
H     0.52745   2.16219  -0.41742
H     3.59333  -1.00460   0.17553
