29

O     3.00664   0.66781  -1.65648
C     2.53558   0.16255  -0.67062
C     1.06631   0.07232  -0.32905
C     0.81610   0.87155   0.96789
C    -0.66500   0.80472   1.33991
C    -1.05635  -0.65710   1.57395
C    -0.82292  -1.46151   0.29292
C     0.65687  -1.39545  -0.09193
C    -1.66679  -0.87796  -0.84345
C    -1.26741   0.58269  -1.08095
C    -1.50392   1.38839   0.19930
C     0.21337   0.65578  -1.46229
O     3.30720  -0.37879   0.28659
H     1.13072   1.91891   0.82008
H     1.43822   0.45719   1.77597
H    -0.83292   1.38791   2.26009
H    -0.45954  -1.08173   2.39846
H    -2.11495  -0.72311   1.87583
H    -1.10565  -2.51322   0.46590
H     0.83655  -1.98002  -1.01028
H     1.28408  -1.83404   0.69872
H    -1.51737  -1.46365  -1.76605
H    -2.73852  -0.94426  -0.58824
H    -1.87435   1.00633  -1.89789
H    -2.57255   1.36543   0.47322
H    -1.23551   2.44545   0.03203
H     0.51544   1.69732  -1.65532
H     0.40438   0.09815  -2.39313
H     4.22227  -0.27165  -0.01530
