21

O    -2.97285  -1.01299   0.30462
C    -2.12021  -0.63929  -0.46356
O    -1.83504  -1.27738  -1.59537
C    -1.29307   0.60520  -0.19804
O    -2.03281   1.41562   0.66376
C     0.10294   0.25929   0.38563
C     1.00197  -0.47570  -0.61388
C     2.30353  -0.99198  -0.01468
C     0.75155   1.53838   0.90820
H    -2.40993  -2.05870  -1.63369
H    -1.14988   1.13648  -1.15673
H    -2.62866   0.81536   1.13919
H    -0.08352  -0.40931   1.24766
H     1.22185   0.20962  -1.45217
H     0.45522  -1.31955  -1.06094
H     2.93374  -0.17990   0.37872
H     2.89781  -1.53262  -0.76724
H     2.10891  -1.68849   0.81637
H     1.64112   1.31781   1.51484
H     0.04248   2.10387   1.52664
H     1.06494   2.18406   0.07057
