46

O     0.97765   3.72062   0.86500
C     1.34069   2.44259   0.67679
C     1.68108   2.06075  -0.76585
O     2.83424   1.29598  -0.88385
C     2.81128  -0.04803  -0.61964
C     1.66298  -0.75931  -0.31905
C     1.77774  -2.12116   0.01396
C     4.07034  -0.68069  -0.67751
C     4.19773  -2.03576  -0.42424
C     3.04700  -2.74993  -0.07633
N     2.88268  -4.06266   0.28700
C     1.57409  -4.26897   0.64413
C     0.84703  -3.10846   0.50089
C    -0.59055  -2.93739   0.88139
C    -0.86614  -1.90449   1.98517
N    -0.84233  -0.53434   1.52980
C    -1.86823  -0.06695   0.78412
O    -1.57733   1.15336   0.27619
C    -2.57225   1.87862  -0.48962
C    -1.86843   3.17888  -0.85581
C    -3.78234   2.17324   0.38791
C    -2.94025   1.10254  -1.75008
O    -2.89818  -0.67672   0.58160
O     1.36278   1.67401   1.59574
H     1.06483   4.21987   0.04465
H     1.85834   2.96452  -1.37056
H     0.78942   1.55873  -1.18268
H     0.69258  -0.27331  -0.27428
H     4.93911  -0.06960  -0.92611
H     5.17501  -2.52130  -0.47682
H     3.61676  -4.75307   0.33251
H     1.23735  -5.24324   0.99607
H    -0.97225  -3.90983   1.23338
H    -1.21547  -2.66744   0.01297
H    -1.86442  -2.10426   2.40448
H    -0.13368  -2.01183   2.79795
H    -0.03396   0.06301   1.68637
H    -2.55869   3.84084  -1.39765
H    -1.00830   2.98094  -1.51339
H    -1.51572   3.69308   0.04905
H    -4.49863   2.80146  -0.16199
H    -3.46619   2.71916   1.28949
H    -4.28264   1.24422   0.68797
H    -3.47515   0.17989  -1.49799
H    -3.57669   1.72422  -2.39705
H    -2.03262   0.83830  -2.31497
