10

O     2.73071   0.31623   0.48981
C     1.86398  -0.70048   0.36754
C     0.52268  -0.30270  -0.03790
C    -0.60971  -0.02119  -0.37329
C    -1.96990   0.29045  -0.76601
O     2.19029  -1.83125   0.58166
H     2.28570   1.14670   0.27614
H    -2.68340  -0.32565  -0.20025
H    -2.12031   0.07849  -1.83637
H    -2.21005   1.34940  -0.58504
