16

O     4.15632  -0.00602   0.46872
C     3.03404  -0.46249  -0.12242
C     1.76260   0.10375   0.38829
C     0.59984  -0.26670  -0.18364
C    -0.71300   0.20822   0.18108
C    -1.83185  -0.18865  -0.45516
C    -3.21411   0.26688  -0.14620
O     3.10123  -1.27185  -1.00826
H     3.93392   0.62683   1.16043
H     1.77586   0.82114   1.21740
H     0.67576  -0.98988  -1.00561
H    -0.78534   0.92582   1.00754
H    -1.71980  -0.90773  -1.27799
H    -3.85805  -0.58583   0.12806
H    -3.68169   0.73297  -1.03046
H    -3.23573   0.99354   0.67821
