33

C    -2.97126  -1.12437  -0.69686
C    -2.39994   0.26106  -0.37203
C    -3.12747   0.92674   0.80338
C    -4.54442   1.38287   0.47409
C    -0.89894   0.15522  -0.18495
C    -0.06536   0.10449  -1.31057
C     1.31015  -0.05835  -1.19299
C     1.90770  -0.16914   0.06807
C     3.39569  -0.43243   0.21203
C     3.74226  -1.87402  -0.14810
C     4.17412   0.53566  -0.65183
O     4.43104   1.68677  -0.01834
O     4.51156   0.33007  -1.78949
C     1.08645  -0.10281   1.19449
C    -0.29371   0.05275   1.07111
H    -2.84345  -1.80164   0.16291
H    -2.44877  -1.57653  -1.55211
H    -4.04282  -1.07987  -0.94576
H    -2.56113   0.90188  -1.25802
H    -3.15431   0.22730   1.65755
H    -2.53877   1.79486   1.14465
H    -5.03436   1.82853   1.35356
H    -4.54525   2.14400  -0.32279
H    -5.17939   0.55101   0.13211
H    -0.50935   0.19701  -2.30634
H     1.93315  -0.09543  -2.09068
H     3.67206  -0.22475   1.25677
H     4.80422  -2.09049   0.04407
H     3.54283  -2.05874  -1.21322
H     3.13129  -2.56545   0.44672
H     4.88267   2.25797  -0.65931
H     1.53449  -0.18010   2.18931
H    -0.90097   0.09603   1.97746
