12

O    -2.35982  -1.00381  -0.25170
C    -1.60687  -0.14297   0.13019
C    -0.15254  -0.15436  -0.05585
C     0.52981  -1.12594  -0.73657
O     1.83627  -0.84726  -0.74896
C     2.02066   0.31149  -0.07131
C     0.83298   0.79086   0.38264
O    -2.02074   0.95516   0.77826
H     0.20069  -2.03335  -1.23561
H     3.04470   0.66922  -0.00448
H     0.65774   1.70123   0.94963
H    -2.98278   0.87972   0.86378
