12

O    -2.14464  -1.98027  -0.29943
C    -1.82499  -0.84396  -0.08465
C    -0.41496  -0.39774  -0.08220
C     0.17050   0.78802   0.31273
C     1.58002   0.77535   0.16254
C     2.03190  -0.42085  -0.34184
S     0.76413  -1.52829  -0.62495
O    -2.74595   0.09933   0.16739
H    -0.37960   1.63964   0.72021
H     2.23596   1.60688   0.42107
H     3.06034  -0.70725  -0.56354
H    -2.33279   0.96934   0.21277
