33

C    -3.98804  -1.52990  -0.18552
C    -3.38233  -0.12556  -0.24963
C    -3.68680   0.44427  -1.63871
O    -4.94850   0.90250  -1.78769
O    -2.92830   0.44360  -2.56087
C    -1.90973  -0.07182   0.08958
C    -1.34864   1.11973   0.56313
C    -0.00702   1.18975   0.92305
C     0.82888   0.06842   0.83523
C     2.27830   0.15975   1.22778
C     3.21443   0.65901   0.11105
C     3.30643  -0.32405  -1.04916
C     4.59750   0.96964   0.67760
C     0.26674  -1.11756   0.35413
C    -1.07536  -1.18673  -0.01519
H    -5.07654  -1.50305  -0.34588
H    -3.78943  -1.99779   0.78988
H    -3.56122  -2.17128  -0.96947
H    -3.90539   0.51114   0.48688
H    -5.40762   0.88832  -0.93987
H    -1.97683   2.00955   0.66856
H     0.39905   2.12954   1.30782
H     2.63347  -0.82552   1.57761
H     2.37160   0.84448   2.08661
H     2.78202   1.59904  -0.27864
H     3.92092   0.08760  -1.86463
H     2.31745  -0.56575  -1.46649
H     3.77640  -1.26823  -0.72432
H     5.06241   0.06088   1.09663
H     5.27117   1.35945  -0.10105
H     4.54901   1.71659   1.48526
H     0.88776  -2.01455   0.27800
H    -1.47168  -2.13437  -0.38189
