15

Cl   -3.73629   0.22591   0.34973
C    -2.02735   0.06631   0.16746
C    -1.24495   1.21571   0.06676
C     0.13248   1.08671  -0.06796
C     0.73310  -0.17549  -0.11484
C    -0.07218  -1.31700  -0.03821
C    -1.44781  -1.20366   0.11530
C     2.20634  -0.35781  -0.30514
O     2.98275   0.66896   0.07996
O     2.68852  -1.35138  -0.76969
H    -1.72040   2.19716   0.08188
H     0.72904   1.99599  -0.18512
H     0.40623  -2.29654  -0.10244
H    -2.07991  -2.08975   0.19234
H     2.45033   1.33468   0.53006
