22

O     2.22312  -0.91039   1.50009
C     2.70176  -0.38715   0.53610
O     3.94564  -0.62097   0.09264
C     2.00230   0.62555  -0.35154
N     0.64986   0.87446   0.02440
C     0.19987   1.94950   0.76248
C    -1.14663   1.84067   0.97997
C    -1.57094   0.62371   0.34993
C    -2.80645  -0.02801   0.20736
C    -2.86143  -1.21876  -0.50225
C    -1.70234  -1.78280  -1.06720
C    -0.46470  -1.16743  -0.93594
C    -0.41487   0.03927  -0.23229
H     4.34742  -1.26035   0.70034
H     2.06221   0.26675  -1.39317
H     2.57651   1.56411  -0.31771
H     0.89595   2.72755   1.07098
H    -1.76874   2.55042   1.52056
H    -3.70784   0.40009   0.65209
H    -3.81595  -1.73617  -0.62457
H    -1.77603  -2.72842  -1.60871
H     0.43140  -1.62185  -1.36356
