20

N    -2.08575  -1.28748   0.68102
C    -1.47443   0.01371   0.49332
C    -2.16480   0.72246  -0.66928
C     0.03341   0.01753   0.28309
C     0.65798  -0.96009  -0.49935
C     2.02567  -0.90114  -0.76314
C     2.79307   0.13712  -0.23605
C     2.18766   1.10562   0.56417
C     0.81861   1.04454   0.81840
H    -1.55248  -1.84856   1.34175
H    -2.10673  -1.80484  -0.19570
H    -1.67297   0.60789   1.40383
H    -2.02464   0.14821  -1.60056
H    -1.74414   1.72435  -0.83432
H    -3.24355   0.81246  -0.47309
H     0.06229  -1.77831  -0.91314
H     2.49511  -1.66777  -1.38525
H     3.86320   0.19134  -0.45077
H     2.78636   1.91237   0.99406
H     0.34621   1.81058   1.44101
