14

N    -1.20742   0.67153   0.24565
C     0.12284   1.24677   0.35044
C     1.13229   0.07472   0.32774
C     0.33046  -1.09624  -0.28154
C    -1.02715  -0.46019  -0.64679
H    -1.49880   0.32473   1.15815
H     0.20827   1.88949   1.23885
H     0.29111   1.89381  -0.52914
H     1.47951  -0.17269   1.34264
H     2.02872   0.32405  -0.25932
H     0.18506  -1.89520   0.46293
H     0.83054  -1.55809  -1.14608
H    -1.00238  -0.08211  -1.68553
H    -1.87316  -1.16059  -0.57781
