17

N     2.59424   0.55294   0.24523
C     1.76336  -0.54593  -0.19332
C     0.28972  -0.22496  -0.10589
C    -0.65618  -1.25521  -0.09608
C    -2.01879  -0.97183  -0.05021
C    -2.45814   0.35133  -0.00222
C    -1.52316   1.38378  -0.00093
C    -0.15946   1.09776  -0.05377
H     3.57452   0.36632   0.05202
H     2.50689   0.69204   1.25061
H     1.94031  -1.50241   0.34285
H     2.00915  -0.75469  -1.25033
H    -0.31733  -2.29577  -0.12454
H    -2.74284  -1.79016  -0.04461
H    -3.52676   0.57737   0.04115
H    -1.86065   2.42291   0.04302
H     0.58523   1.89641  -0.05315
