16

N    -2.62076   0.06039   0.61794
C    -1.40028  -0.60285   0.20732
C    -0.19601   0.31731   0.31981
C     1.10324  -0.36281  -0.08179
C     2.32085   0.54451  -0.02490
H    -3.41455  -0.57112   0.53646
H    -2.81722   0.84378  -0.00300
H    -1.24058  -1.47313   0.86701
H    -1.42973  -1.01397  -0.82659
H    -0.35486   1.20657  -0.31808
H    -0.13405   0.69650   1.35446
H     1.26567  -1.24079   0.56729
H     0.99490  -0.76780  -1.10382
H     2.19027   1.43036  -0.66651
H     2.50344   0.91034   0.99832
H     3.22967   0.02270  -0.36193
