22

N     0.30434   1.47043  -1.40344
C    -0.03747   0.88971  -0.12101
C    -1.13201  -0.21115  -0.14229
C    -2.43948   0.34844  -0.69366
C    -1.36620  -0.83508   1.23044
C     1.22982   0.36809   0.53164
O     1.96543  -0.35815  -0.32301
C     3.16643  -0.89872   0.20223
O     1.54300   0.54085   1.67960
H     0.67235   0.74984  -2.02214
H    -0.51359   1.87440  -1.85121
H    -0.38243   1.69331   0.55080
H    -0.76818  -0.99650  -0.83125
H    -2.82800   1.14939  -0.04358
H    -2.32682   0.76362  -1.70698
H    -3.20785  -0.43794  -0.74642
H    -0.45534  -1.28370   1.65240
H    -1.72023  -0.07718   1.94781
H    -2.13133  -1.62455   1.17203
H     3.79543  -0.10625   0.63389
H     2.95144  -1.63298   0.99267
H     3.68080  -1.38568  -0.63492
