43

C     1.02705  -1.44923  -0.27429
C    -0.37657  -0.98179  -0.11263
C    -0.90194   0.28972   0.01500
C    -2.32583   0.14340   0.14492
C    -2.60482  -1.24934   0.11620
N    -1.40301  -1.89576  -0.04269
C    -3.90369  -1.73396   0.23717
C    -4.94266  -0.81648   0.36271
C    -4.68723   0.57060   0.36947
O    -5.66775   1.50620   0.46557
C    -6.97623   1.08735   0.71501
C    -3.38310   1.05266   0.26736
C    -0.18055   1.59907   0.01484
C     1.24647   1.52264   0.52905
N     2.18364   2.05680  -0.30450
C     3.59596   1.94537  -0.01290
C     4.15485   0.59849  -0.40844
C     4.36293  -0.39496   0.55191
C     4.80325  -1.66283   0.17339
C     5.03144  -1.95581  -1.16987
C     4.82754  -0.97063  -2.13565
C     4.39555   0.29752  -1.75388
O     1.53665   1.03868   1.60598
H     1.50024  -1.64762   0.70027
H     1.07027  -2.36871  -0.87738
H     1.65027  -0.69816  -0.77540
H    -1.27663  -2.89580  -0.08873
H    -4.11716  -2.80562   0.23394
H    -5.96143  -1.19100   0.46045
H    -7.58397   1.99476   0.82737
H    -7.05383   0.49413   1.64498
H    -7.39090   0.48840  -0.11630
H    -3.22319   2.13299   0.28614
H    -0.21376   2.08040  -0.97911
H    -0.70998   2.28473   0.69813
H     1.89722   2.35178  -1.22742
H     4.12482   2.75316  -0.53979
H     3.72671   2.10212   1.06661
H     4.14941  -0.17046   1.59977
H     4.96705  -2.42986   0.93386
H     5.37954  -2.94774  -1.46822
H     5.01679  -1.19243  -3.18926
H     4.23701   1.06713  -2.51615
