15

C    -1.21123  -0.63367   0.42327
C    -1.09217   0.86027   0.06446
O     0.14373   1.35608   0.50387
C     1.22705   0.79712  -0.20415
C     0.98406  -0.69229  -0.51215
N     0.08542  -1.28954   0.44945
H    -1.67909  -0.75810   1.41165
H    -1.87754  -1.13842  -0.30124
H    -1.87418   1.45657   0.55573
H    -1.20746   1.01580  -1.02821
H     1.42713   1.36411  -1.13767
H     2.10822   0.92382   0.44538
H     0.53740  -0.81664  -1.51435
H     1.93817  -1.24123  -0.53433
H     0.49058  -1.20408   1.37839
