17

N     2.59483   0.55288   0.24598
C     1.76332  -0.54550  -0.19203
C     0.28963  -0.22427  -0.10582
C    -0.65590  -1.25499  -0.09628
C    -2.01867  -0.97238  -0.05068
C    -2.45853   0.35060  -0.00267
C    -1.52414   1.38352  -0.00116
C    -0.16023   1.09817  -0.05376
H     3.57449   0.36812   0.04870
H     2.51087   0.69135   1.25158
H     1.93937  -1.50176   0.34481
H     2.00940  -0.75530  -1.24876
H    -0.31653  -2.29539  -0.12446
H    -2.74228  -1.79110  -0.04547
H    -3.52730   0.57614   0.04020
H    -1.86213   2.42247   0.04281
H     0.58389   1.89735  -0.05318
