14

N     2.29163  -0.28702   0.05681
C     0.92142  -0.11384   0.02147
C     0.05636  -1.21913   0.08625
C    -1.32216  -1.03875   0.10918
C    -1.87676   0.23993   0.06474
C    -1.02353   1.34039  -0.00506
C     0.35654   1.17213  -0.02839
H     2.84485   0.46997  -0.32292
H     2.62966  -1.19598  -0.23214
H     0.47979  -2.22684   0.12831
H    -1.97151  -1.91577   0.16520
H    -2.95949   0.38024   0.08568
H    -1.44047   2.35025  -0.04571
H     1.01358   2.04444  -0.08344
