26

N    -3.33150   1.54717   0.16870
C    -3.49308   0.17931  -0.28627
C    -2.37585  -0.73357   0.20703
C    -0.97168  -0.18305   0.00853
C     0.12161  -1.21160   0.31418
C     1.48524  -0.58183   0.38349
C     2.01904  -0.16910   1.60997
C     3.23909   0.50100   1.67527
C     3.94898   0.77314   0.50708
C     3.43665   0.35609  -0.72034
C     2.21829  -0.31756  -0.77945
H    -3.47257   1.60953   1.17620
H    -4.03001   2.15063  -0.25749
H    -4.46379  -0.28318  -0.00209
H    -3.47511   0.19190  -1.38992
H    -2.52322  -0.95442   1.28091
H    -2.47467  -1.70513  -0.30771
H    -0.83355   0.70236   0.64653
H    -0.85241   0.18837  -1.02436
H     0.10648  -2.00593  -0.45169
H    -0.10054  -1.70587   1.27548
H     1.46488  -0.38361   2.52882
H     3.64029   0.81700   2.64183
H     4.90333   1.30257   0.55489
H     3.99170   0.56224  -1.63896
H     1.82279  -0.64657  -1.74505
