23

C     2.17996   0.66458  -0.38440
C     1.30974  -0.58659  -0.37010
C    -0.04399  -0.37292  -1.05817
C    -1.00411   0.49499  -0.24178
C    -2.36859   0.60833  -0.90391
C    -1.10611  -0.06198   1.18313
N     0.16530  -0.27163   1.84114
C     1.06733  -1.09140   1.06075
H     2.36109   1.02128  -1.41019
H     3.15816   0.46347   0.08128
H     1.71488   1.49572   0.16862
H     1.85110  -1.37640  -0.92016
H     0.10160   0.06280  -2.06210
H    -0.52253  -1.35747  -1.21441
H    -0.57425   1.51169  -0.16731
H    -2.29763   1.07709  -1.89769
H    -3.06123   1.21334  -0.29786
H    -2.82487  -0.38646  -1.03776
H    -1.73224   0.59687   1.80731
H    -1.63331  -1.03542   1.14397
H     0.59864   0.62070   2.06687
H     0.63713  -2.10864   1.01105
H     2.02380  -1.18173   1.60152
