20

N    -2.10069   1.32400   0.38077
C    -1.45871   0.03226   0.48002
C    -2.23040  -0.95643  -0.38449
C     0.04267   0.01062   0.19147
C     0.75370  -1.19735   0.18782
C     2.12891  -1.22341  -0.02397
C     2.82993  -0.03530  -0.23018
C     2.13904   1.17236  -0.23187
C     0.75923   1.19073  -0.02638
H    -1.66612   2.00398   0.99908
H    -2.02294   1.69217  -0.56634
H    -1.57742  -0.29941   1.52945
H    -1.84374  -1.97962  -0.28573
H    -2.16572  -0.67225  -1.44818
H    -3.28858  -0.94847  -0.08773
H     0.22583  -2.13698   0.36688
H     2.66056  -2.17826  -0.02458
H     3.90947  -0.05417  -0.39754
H     2.67528   2.10993  -0.39839
H     0.22961   2.14561  -0.03011
