52

C    -0.75475   2.39424   0.64414
C    -0.74734   1.08906  -0.17356
C    -1.49746   1.29853  -1.49357
C    -3.00718   1.53045  -1.32787
C    -3.56620   1.02814   0.00231
C     0.71383   0.72130  -0.41402
C     1.38034   0.99439  -1.61081
C     2.69959   0.60024  -1.81165
C     3.39679  -0.10474  -0.82812
C     4.78055  -0.64469  -1.12268
C     4.69332  -2.12413  -1.50665
C     5.78931  -0.42802  -0.00001
C     2.73578  -0.35581   0.37831
C     1.41995   0.05788   0.60666
C     0.78114  -0.18084   1.95194
C    -0.75912  -0.26594   1.95505
C    -1.36234  -0.14583   0.56088
C    -2.92408  -0.27602   0.49028
C    -3.57244  -0.65239   1.82463
C    -3.23879  -1.40423  -0.51986
N    -4.65526  -1.55903  -0.78356
H    -0.30386   3.19601   0.03936
H    -0.15315   2.31102   1.56027
H    -1.76270   2.71849   0.93502
H    -1.32060   0.40878  -2.11883
H    -1.05516   2.14331  -2.04280
H    -3.53042   1.03519  -2.16300
H    -3.24710   2.60025  -1.43506
H    -4.65444   0.87352  -0.07539
H    -3.43969   1.79369   0.78275
H     0.86451   1.52337  -2.41241
H     3.19144   0.83116  -2.76109
H     5.14735  -0.09273  -2.00519
H     3.98964  -2.27982  -2.33742
H     5.67754  -2.51723  -1.80771
H     4.33198  -2.72427  -0.65540
H     5.53377  -1.01196   0.89830
H     6.79200  -0.75006  -0.32245
H     5.84682   0.63025   0.29627
H     3.25348  -0.89879   1.17589
H     1.10281   0.63330   2.62511
H     1.21689  -1.09092   2.39131
H    -1.17695   0.51743   2.60583
H    -1.06787  -1.21814   2.40621
H    -0.96909  -1.00563  -0.01151
H    -4.63957  -0.85716   1.65560
H    -3.48025   0.15115   2.57033
H    -3.12954  -1.56327   2.25319
H    -2.86356  -2.34432  -0.07990
H    -2.63381  -1.23839  -1.43422
H    -4.85006  -2.47170  -1.18637
H    -4.97602  -0.87530  -1.46403
