21

C    -1.27965  -1.88044   0.28795
C    -0.25994  -0.80958   0.06398
C     1.07051  -1.15147  -0.11833
C     2.02769  -0.16654  -0.32349
N     3.40258  -0.54467  -0.51732
O     4.20956   0.34092  -0.71145
O     3.67687  -1.72594  -0.47350
C     1.67613   1.17589  -0.34355
C     0.35021   1.51175  -0.15416
C    -0.63573   0.54323   0.04424
B    -2.14251   1.03001   0.22890
O    -2.46472   2.08448   1.02290
O    -3.13073   0.41534  -0.44497
H    -1.76581  -1.74180   1.25195
H    -0.82146  -2.86510   0.26130
H    -2.05023  -1.82001  -0.47658
H     1.38381  -2.18495  -0.10834
H     2.43583   1.92486  -0.50379
H     0.06699   2.55482  -0.17662
H    -1.75103   2.51268   1.49218
H    -3.99839   0.79663  -0.30118
