21

C     1.75852  -1.66663  -0.50466
C     0.47140  -0.96046  -0.20747
C    -0.69760  -1.71428  -0.10716
C    -1.91271  -1.11580   0.14350
C    -1.95814   0.26649   0.28919
N    -3.21529   0.90968   0.55401
O    -3.21224   2.11004   0.73517
O    -4.21016   0.21396   0.58698
C    -0.80451   1.03119   0.18437
C     0.42598   0.43162  -0.05734
B     1.72379   1.35694  -0.14132
O     1.84311   2.18314  -1.19116
O     2.69454   1.36396   0.81155
H     1.72660  -2.07357  -1.51506
H     2.60652  -0.99145  -0.43761
H     1.90522  -2.49973   0.18138
H    -0.64453  -2.78615  -0.22928
H    -2.82280  -1.68940   0.22735
H    -0.87675   2.10257   0.29249
H     2.62258   2.74116  -1.17851
H     2.57638   0.78661   1.56346
