16

O     2.73619  -0.00058   1.08454
B     1.98810   0.07623  -0.04191
O     2.59796   0.21283  -1.22825
C     0.38728   0.01369  -0.03443
C    -0.38891   1.13642   0.23762
Cl    0.41969   2.61932   0.60455
C    -1.77366   1.10757   0.22396
C    -2.41732  -0.08189  -0.06868
C    -1.68684  -1.22568  -0.33885
C    -0.30322  -1.16147  -0.31797
Cl    0.61210  -2.58784  -0.64437
H     2.28097  -0.08660   1.91969
H     3.55497   0.24974  -1.18280
H    -2.33315   2.00406   0.43776
H    -3.49557  -0.11768  -0.08569
H    -2.17848  -2.15812  -0.56517
