26

O    -2.40973  -2.24114   0.77687
B    -1.64081  -1.47859  -0.05523
O    -1.01037  -2.09286  -1.07464
C    -1.53090   0.09654   0.09830
C    -2.69700   0.84475   0.25539
C    -2.67263   2.22604   0.32283
C    -1.46363   2.89474   0.23656
C    -0.29273   2.17522   0.09093
C    -0.31181   0.78490   0.02633
C     0.95905   0.05167  -0.08536
C     1.23870  -1.01421   0.76472
C     2.43980  -1.69223   0.67025
C     3.38028  -1.31410  -0.27304
C     3.11307  -0.25274  -1.12117
C     1.91348   0.42788  -1.02596
H    -2.86131  -1.77707   1.47998
H    -1.15330  -3.03950  -1.10765
H    -3.64807   0.33031   0.30758
H    -3.59349   2.77880   0.44012
H    -1.43320   3.97355   0.28759
H     0.65581   2.69125   0.04402
H     0.51133  -1.30186   1.51039
H     2.64514  -2.51734   1.33729
H     4.31850  -1.84446  -0.34677
H     3.84275   0.04454  -1.86066
H     1.70108   1.24591  -1.69907
