15

O     2.39492  -1.28739   0.24325
B     1.78986  -0.08533   0.18975
O     2.56238   1.03087   0.27067
C     0.21175  -0.04625   0.02735
C    -0.54706   1.09027   0.31439
C    -1.92205   1.05327   0.14916
N    -2.57531  -0.01279  -0.27929
C    -1.86916  -1.09707  -0.55415
C    -0.49283  -1.16645  -0.41680
H     3.34703  -1.24179   0.34087
H     2.11012   1.87090   0.21707
H    -0.07648   1.99487   0.67619
H    -2.53479   1.91892   0.36816
H    -2.44148  -1.94866  -0.89976
H     0.04313  -2.07347  -0.64688
