16

O     2.62263   1.25036   0.56592
B     1.98658   0.24303  -0.07080
O     2.71673  -0.61216  -0.80671
C     0.40791   0.00875  -0.01473
C    -0.45865   1.08116   0.19470
F     0.07530   2.31452   0.39445
C    -1.83548   0.98111   0.21546
C    -2.40516  -0.26446   0.02546
C    -1.59514  -1.36769  -0.17274
C    -0.21678  -1.22505  -0.19355
I     0.89485  -2.99606  -0.46725
H     2.09469   1.88982   1.04227
H     3.65986  -0.44710  -0.81424
H    -2.43235   1.86407   0.37825
H    -3.47791  -0.37821   0.03551
H    -2.03709  -2.34209  -0.31210
