21

C    -2.43787  -0.64140  -0.52990
S    -1.71059  -0.62274   1.17016
O    -1.84281  -1.98914   1.68146
C     0.01231  -0.49458   0.56646
C     0.79107  -1.63231   0.64101
C     2.09941  -1.60103   0.19159
C     2.61069  -0.42359  -0.32850
C     1.81718   0.70881  -0.39890
C     0.49724   0.70829   0.05593
B    -0.39950   2.02450  -0.04430
O    -0.34504   2.82137  -1.13592
O    -1.25695   2.41183   0.92272
H    -1.96057  -1.41870  -1.11674
H    -2.28603   0.33662  -0.97145
H    -3.49750  -0.85107  -0.42470
H     0.35237  -2.52888   1.05497
H     2.71369  -2.48695   0.24663
H     3.63099  -0.38664  -0.68104
H     2.23384   1.62370  -0.79868
H     0.26886   2.55713  -1.81947
H    -1.29066   1.88478   1.71867
