16

O     2.73729  -1.04761   0.20499
B     1.99733   0.02929  -0.17833
O     2.62962   1.07888  -0.72747
C     0.41257   0.04694  -0.04165
C    -0.32417  -1.08002  -0.41038
C    -1.70435  -1.11025  -0.33278
C    -2.39130  -0.00152   0.13209
C    -1.69381   1.12912   0.51643
C    -0.31095   1.14359   0.42471
Cl    0.52543   2.56479   0.93257
H     2.26053  -1.77721   0.59597
H     3.58122   0.98341  -0.78585
H     0.20518  -1.94696  -0.78192
H    -2.24294  -1.99671  -0.63236
H    -3.46879  -0.01556   0.19819
H    -2.21253   1.99971   0.88579
