16

O    -2.65620  -0.39028   1.50331
B    -2.10123   0.17847   0.41849
O    -2.92628   0.86765  -0.38998
C    -0.53100   0.04419   0.10487
C     0.16344   1.06957  -0.53397
C     1.51578   0.95658  -0.79575
F     2.15784   1.96465  -1.40466
C     2.22143  -0.18788  -0.44144
F     3.52945  -0.29741  -0.70139
C     1.52865  -1.21454   0.19015
F     2.18162  -2.33194   0.54223
C     0.17887  -1.09952   0.46487
H    -2.07304  -0.86926   2.08980
H    -2.54133   1.25656  -1.17402
H    -0.33482   1.98334  -0.82033
H    -0.31322  -1.93007   0.94772
