27

C    -1.76401   0.26503  -1.68143
C    -1.56757   0.39785  -0.16661
C    -2.65828  -0.36817   0.57964
C    -0.16883  -0.05160   0.17800
C     0.08227  -1.35889   0.56486
C     1.37663  -1.77667   0.84219
N     1.60676  -3.13880   1.24454
O     2.74816  -3.46942   1.49226
O     0.64795  -3.88024   1.31048
C     2.44950  -0.90323   0.73295
C     2.19866   0.39190   0.32835
C     0.90606   0.84343   0.04857
B     0.75999   2.36077  -0.42070
O    -0.14877   3.16984   0.15396
O     1.57649   2.88829  -1.37038
H    -2.76163   0.59462  -1.96063
H    -1.03559   0.87257  -2.21422
H    -1.64276  -0.77181  -1.98906
H    -1.64685   1.45381   0.10031
H    -3.61568   0.12484   0.42854
H    -2.74941  -1.38857   0.21557
H    -2.45060  -0.39102   1.64659
H    -0.71477  -2.07830   0.66362
H     3.44672  -1.24796   0.95747
H     3.02632   1.08191   0.24070
H    -0.12728   4.07377  -0.16514
H     2.22663   2.30594  -1.76050
