16

O     2.67187   1.12351   0.62739
B     2.00013   0.17508  -0.06156
O     2.69375  -0.66088  -0.85249
C     0.41335  -0.00452  -0.01053
C    -0.42635   1.07552   0.25627
F     0.13867   2.28012   0.52648
C    -1.80574   1.00722   0.26769
C    -2.40775  -0.21078   0.00700
C    -1.62707  -1.32295  -0.24780
C    -0.24496  -1.21056  -0.25550
Br    0.73363  -2.80036  -0.58220
H     2.16731   1.75467   1.13837
H     3.64154  -0.52487  -0.85615
H    -2.38128   1.89433   0.47791
H    -3.48312  -0.29468   0.00731
H    -2.08378  -2.28086  -0.44218
