39

C    -0.83308  -2.18077   0.13590
C    -1.71301  -0.98563   0.51558
C    -3.13504  -1.27468   0.03086
N    -1.15482   0.23827  -0.05806
C     0.18092   0.50453   0.45654
C     1.27678  -0.03085  -0.43159
C     1.02875  -0.20981  -1.78582
C     2.01068  -0.67732  -2.63795
C     3.26663  -0.97396  -2.13725
C     3.51850  -0.79936  -0.78985
C     2.54395  -0.32214   0.09028
B     2.94246  -0.13736   1.61243
O     3.80984  -0.98387   2.24051
O     2.45561   0.89412   2.33723
C    -2.03417   1.40252  -0.06115
C    -2.31063   1.99655   1.32867
C    -1.50383   2.48167  -1.00904
H    -0.78071  -2.27203  -0.94551
H     0.17700  -2.07499   0.51917
H    -1.25928  -3.09378   0.54622
H    -1.73139  -0.92131   1.62317
H    -3.41144  -2.28581   0.32104
H    -3.18268  -1.20408  -1.05284
H    -3.86388  -0.59705   0.46752
H     0.30577   0.10791   1.47331
H     0.34248   1.58132   0.53031
H     0.04125   0.01457  -2.15776
H     1.79982  -0.80969  -3.68964
H     4.04451  -1.34025  -2.79160
H     4.50754  -1.02322  -0.40900
H     4.14327  -1.70753   1.71252
H     2.79765   0.92339   3.23235
H    -2.98544   1.06944  -0.48343
H    -3.01035   2.82483   1.24451
H    -2.74566   1.24630   1.98548
H    -1.39465   2.36416   1.78508
H    -2.27574   3.23035  -1.17244
H    -1.24016   2.04039  -1.96583
H    -0.62735   2.98477  -0.60981
