27

C     1.74826   0.90189  -0.93041
N     1.44143   0.20048   0.29893
C     2.56764   0.19621   1.20629
C     0.90470  -1.12648   0.03440
C    -0.53367  -0.97144  -0.37744
C    -1.16598  -1.82054  -1.26798
C    -2.49446  -1.60617  -1.59824
C    -3.17902  -0.54095  -1.04084
C    -2.53857   0.30815  -0.15192
C    -1.20994   0.10569   0.19822
B    -0.39407   1.03859   1.20492
O    -0.20380   2.38622   0.97452
O    -0.21242   0.60280   2.48712
H     0.87728   0.87809  -1.58386
H     1.99096   1.93894  -0.70233
H     2.59841   0.44774  -1.46111
H     3.42763  -0.35873   0.80360
H     2.26129  -0.25491   2.14835
H     2.87348   1.22455   1.39564
H     0.93783  -1.69792   0.96635
H     1.49039  -1.66771  -0.72573
H    -0.62402  -2.64822  -1.70511
H    -2.99121  -2.26758  -2.29348
H    -4.21398  -0.36954  -1.30062
H    -3.08139   1.13724   0.28085
H    -0.44595   2.67936   0.09919
H     0.16915   1.28434   3.04098
