30

C     5.94542  -0.09104  -0.06418
O     4.96055  -0.18880  -1.05066
C     3.66303  -0.12800  -0.68252
C     3.21342   0.12950   0.61558
C     1.84456   0.16909   0.87935
C     0.90322  -0.04660  -0.12958
N    -0.45885   0.03250   0.19639
C    -1.52255  -0.37068  -0.56092
O    -1.41053  -0.93440  -1.63350
C    -2.87685  -0.06769   0.01095
C    -3.12545   0.92674   0.96512
C    -4.42819   1.18972   1.38462
C    -5.49248   0.46189   0.85447
C    -5.25150  -0.53008  -0.09829
C    -3.95202  -0.78749  -0.52203
C     1.36132  -0.30917  -1.43150
C     2.72042  -0.34412  -1.69444
H     5.94820   0.89928   0.42747
H     5.82581  -0.86566   0.71460
H     6.90926  -0.23733  -0.56905
H     3.91505   0.30608   1.43108
H     1.50462   0.37873   1.89829
H    -0.66583   0.37493   1.12486
H    -2.31231   1.54126   1.35958
H    -4.61783   1.97870   2.11623
H    -6.51215   0.67780   1.18316
H    -6.08146  -1.10158  -0.51969
H    -3.73239  -1.53772  -1.28465
H     0.63863  -0.50444  -2.21995
H     3.08685  -0.55573  -2.70071
