33

O     0.05558   1.84081  -2.02223
C    -0.35342   0.95017  -1.29183
N     0.20868   0.62034  -0.11696
C     1.37781   1.29744   0.40134
C     2.59100   0.40359   0.45476
C     3.16816  -0.05685  -0.73540
C     4.26649  -0.91154  -0.70339
C     4.80459  -1.31705   0.51953
C     4.24228  -0.85700   1.70752
C     3.13975  -0.00154   1.67315
C    -1.56993   0.12367  -1.75701
O    -2.12989   0.78223  -2.83938
C    -2.57237  -0.09846  -0.64758
C    -2.55646  -1.26707   0.12050
C    -3.47166  -1.44496   1.15959
C    -4.41528  -0.45705   1.43466
C    -4.44215   0.70750   0.66371
C    -3.52784   0.88538  -0.37148
H    -0.23322  -0.10182   0.44006
H     1.55623   2.14826  -0.27171
H     1.15682   1.70713   1.40002
H     2.74878   0.27222  -1.69100
H     4.71402  -1.26405  -1.63596
H     5.66991  -1.98386   0.54439
H     4.66538  -1.16903   2.66565
H     2.69943   0.36511   2.60541
H    -1.15652  -0.86532  -2.05476
H    -1.46397   1.45784  -3.07290
H    -1.83829  -2.05972  -0.11359
H    -3.45994  -2.36835   1.74367
H    -5.13522  -0.60041   2.24409
H    -5.18434   1.48252   0.87209
H    -3.55455   1.78000  -0.99758
