36

O    -0.56591  -1.17066   2.27518
C     0.05977  -0.27716   1.73445
C     1.26832  -0.58562   0.92179
C     1.83889   0.21987   0.01078
C     2.97730  -0.09044  -0.85779
C     3.39477  -1.40489  -1.12628
C     4.45964  -1.64820  -1.98756
C     5.13405  -0.58681  -2.59400
C     4.73742   0.72284  -2.32922
C     3.66689   0.96595  -1.47307
N    -0.29712   1.03747   1.82941
C    -1.49782   1.46519   2.49682
C    -2.60962   1.88577   1.52695
C    -3.10053   0.74032   0.68635
C    -2.42264   0.35905  -0.47725
C    -2.82520  -0.75927  -1.20472
C    -3.92373  -1.50805  -0.78702
C    -4.61360  -1.13320   0.36454
C    -4.20220  -0.02019   1.09319
H     1.64098  -1.59823   1.09706
H     1.42595   1.22490  -0.14328
H     2.85777  -2.24330  -0.67795
H     4.76649  -2.67533  -2.20062
H     5.96787  -0.78482  -3.27178
H     5.26311   1.55847  -2.79613
H     3.35502   1.99336  -1.26490
H     0.31764   1.73854   1.44277
H    -1.26356   2.29939   3.17896
H    -1.83624   0.61491   3.10658
H    -2.23612   2.69861   0.88137
H    -3.44032   2.30576   2.11683
H    -1.55813   0.93910  -0.81116
H    -2.27624  -1.05084  -2.10328
H    -4.24324  -2.38268  -1.35834
H    -5.47531  -1.71412   0.70187
H    -4.74446   0.26371   1.99924
