34

C    -3.53733   1.76488  -1.77282
C    -2.20319   1.55330  -1.07071
C    -1.97978   0.13771  -0.52923
C    -3.12818  -0.34522   0.37102
C    -2.88412  -1.68222   1.05652
C    -0.68752   0.09410   0.27277
O    -0.45349   0.89090   1.16508
N     0.15206  -0.93254  -0.01953
C     1.28134  -1.25590   0.82522
C     2.57929  -0.56820   0.47728
C     3.56672  -1.23826  -0.24987
C     4.77850  -0.61645  -0.54847
C     5.01490   0.68672  -0.11539
C     4.03482   1.36363   0.61104
C     2.82083   0.74440   0.90092
H    -3.72329   0.99248  -2.53719
H    -3.56508   2.74081  -2.28036
H    -4.38192   1.74206  -1.06839
H    -2.09167   2.25140  -0.22493
H    -1.37897   1.79246  -1.76341
H    -1.89290  -0.56358  -1.38078
H    -3.31282   0.42981   1.13302
H    -4.04256  -0.40712  -0.24041
H    -3.76963  -2.00064   1.62752
H    -2.65641  -2.47734   0.32883
H    -2.04344  -1.62808   1.76562
H    -0.07529  -1.54459  -0.79007
H     1.42453  -2.34661   0.78847
H     0.99668  -0.98213   1.85332
H     3.39010  -2.26661  -0.57944
H     5.54425  -1.15475  -1.11231
H     5.96541   1.17534  -0.34323
H     4.22137   2.38160   0.96185
H     2.03689   1.26887   1.45373
