43

C    -4.22958   3.64464  -0.02390
C    -3.46651   2.48368  -0.63808
C    -2.78523   1.61534   0.41427
N    -2.04970   0.50357  -0.15645
C    -2.71538  -0.77359  -0.29601
C    -2.54197  -1.68576   0.91751
C    -3.00881  -3.10985   0.66307
C    -0.75861   0.72662  -0.54290
O    -0.22466   1.81338  -0.38911
C    -0.02619  -0.42918  -1.20956
C     1.48125  -0.25784  -1.21816
C     2.10083  -0.41623   0.16992
C     3.60137  -0.46595   0.12879
C     4.35830   0.71019   0.07192
C     5.74819   0.66060  -0.00853
C     6.40555  -0.56885  -0.03453
C     5.66386  -1.74749   0.01581
C     4.27390  -1.69283   0.09434
H    -3.55509   4.30808   0.54144
H    -5.00656   3.29082   0.67357
H    -4.72761   4.25547  -0.79190
H    -2.68829   2.85650  -1.32341
H    -4.14643   1.85845  -1.24368
H    -2.07637   2.23025   0.98874
H    -3.52957   1.21501   1.12239
H    -2.35128  -1.28299  -1.20076
H    -3.78639  -0.58737  -0.48226
H    -3.07962  -1.24887   1.77566
H    -1.47585  -1.68611   1.20261
H    -2.42536  -3.58037  -0.14387
H    -2.89342  -3.73536   1.56071
H    -4.06868  -3.14683   0.36175
H    -0.40693  -0.49494  -2.24432
H    -0.28512  -1.38564  -0.73080
H     1.92056  -1.00510  -1.89751
H     1.73472   0.73450  -1.62100
H     1.76491   0.41894   0.80405
H     1.72227  -1.34404   0.63124
H     3.84550   1.67616   0.09619
H     6.32414   1.58826  -0.04942
H     7.49605  -0.60949  -0.09515
H     6.17209  -2.71504  -0.00327
H     3.69551  -2.62068   0.13839
