28

C     3.47184  -2.25279  -0.27667
C     2.90600  -1.09866   0.07868
C     3.14170   0.22134  -0.58658
C     1.88627   0.78447  -1.24533
C     0.81481   1.12108  -0.22029
O     1.09112   1.39001   0.93436
N    -0.45862   1.11125  -0.69838
C    -1.61383   1.30892   0.13579
C    -2.54387   0.09319   0.20703
C    -3.70780   0.40898   1.13622
C    -1.80848  -1.17541   0.61966
H     3.25060  -3.18180   0.25567
H     4.18270  -2.31330  -1.10799
H     2.20161  -1.08027   0.92048
H     3.46735   0.94964   0.17390
H     3.94376   0.13406  -1.33607
H     2.13636   1.71633  -1.78177
H     1.48841   0.08172  -1.99635
H    -0.60218   0.83337  -1.66026
H    -1.22230   1.54935   1.13673
H    -2.18797   2.18602  -0.21254
H    -2.95935  -0.07383  -0.80612
H    -4.26550   1.29610   0.79620
H    -4.41706  -0.43064   1.19417
H    -3.34538   0.61544   2.15721
H    -2.48063  -2.04660   0.58475
H    -1.41128  -1.09230   1.64489
H    -0.95827  -1.38148  -0.04727
