38

O    -2.22252   0.62950   2.07657
C    -2.69953   0.09973   1.08910
N    -1.97658  -0.70143   0.25771
C    -0.55143  -0.86948   0.38803
C     0.18441  -0.35635  -0.84497
C     1.69067  -0.59056  -0.82994
C     2.38330  -0.10077   0.44592
C     3.88253  -0.07248   0.33373
C     4.57141   1.14050   0.22858
C     5.96016   1.16941   0.11221
C     6.68356  -0.02071   0.09086
C     6.00960  -1.23805   0.18456
C     4.62267  -1.26132   0.30620
C    -4.13172   0.32255   0.69435
C    -4.78746   1.41399   1.27344
C    -6.09666   1.72055   0.91649
C    -6.77164   0.92682  -0.01184
C    -6.13857  -0.18531  -0.56606
C    -4.82623  -0.48838  -0.21094
H    -2.39845  -0.97906  -0.61786
H    -0.26157  -0.30960   1.28820
H    -0.30130  -1.93133   0.57160
H    -0.24345  -0.83604  -1.74356
H    -0.02608   0.72258  -0.94681
H     2.13819  -0.08064  -1.69793
H     1.90789  -1.66408  -0.96963
H     2.02023   0.91023   0.69576
H     2.09644  -0.74795   1.29070
H     4.00758   2.07768   0.24724
H     6.48091   2.12732   0.03742
H     7.77231  -0.00003  -0.00113
H     6.57061  -2.17563   0.16840
H     4.10330  -2.22018   0.39409
H    -4.23386   2.01477   1.99761
H    -6.59599   2.58259   1.36468
H    -7.79362   1.17682  -0.30699
H    -6.67195  -0.82586  -1.27251
H    -4.35706  -1.37983  -0.63476
