69

C     4.35434  -1.64501   2.67423
C     5.26833  -2.50540   1.81172
C     6.15640  -1.76717   0.81036
C     5.44256  -1.08636  -0.35985
C     4.90603   0.31648  -0.09110
C     4.20664   0.93027  -1.29557
C     3.62357   2.31092  -1.02023
C     2.97380   2.98429  -2.22807
C     1.88329   2.17718  -2.93024
C     0.74714   1.73392  -2.02087
C    -0.41239   1.08832  -2.76972
C    -1.47106   0.39725  -1.91425
C    -2.36845   1.29027  -1.05535
C    -1.75447   1.95470   0.17677
C    -1.08449   0.98469   1.14446
C    -2.09601   0.03045   1.74730
O    -3.08640   0.44165   2.32697
N    -1.82868  -1.29281   1.59495
C    -2.68252  -2.32992   2.12617
C    -3.59547  -2.97993   1.08879
C    -4.59590  -2.03579   0.42912
C    -5.63502  -1.45802   1.38167
C    -6.65618  -0.53811   0.71542
C    -6.06167   0.74537   0.14846
H     4.92460  -0.86993   3.21246
H     3.58212  -1.13379   2.08052
H     3.83170  -2.25665   3.42617
H     5.92381  -3.09272   2.47785
H     4.66151  -3.24862   1.26343
H     6.86780  -2.50212   0.39822
H     6.77708  -1.02553   1.34750
H     4.61769  -1.73579  -0.70780
H     6.13988  -1.02608  -1.21357
H     4.20362   0.30617   0.75817
H     5.73972   0.96896   0.22761
H     3.40466   0.24629  -1.62725
H     4.91397   0.98615  -2.14351
H     2.89093   2.23636  -0.19666
H     4.42133   2.96976  -0.63484
H     3.75572   3.23449  -2.96512
H     2.54773   3.94840  -1.89902
H     1.46736   2.78713  -3.75116
H     2.32349   1.28990  -3.41982
H     0.39129   2.60739  -1.45159
H     1.12639   1.02125  -1.26719
H     0.00366   0.34136  -3.46930
H    -0.90395   1.84768  -3.40545
H    -2.13111  -0.17078  -2.59126
H    -0.98889  -0.37085  -1.28249
H    -2.80939   2.07381  -1.69566
H    -3.22118   0.68282  -0.71116
H    -2.55715   2.46731   0.73024
H    -1.03174   2.73170  -0.10945
H    -0.65009   1.55024   1.98438
H    -0.25430   0.44241   0.66424
H    -1.00749  -1.55837   1.06895
H    -2.05202  -3.09956   2.60173
H    -3.27791  -1.85999   2.92196
H    -2.97004  -3.45394   0.31165
H    -4.13442  -3.80378   1.58963
H    -4.04209  -1.21846  -0.06215
H    -5.10830  -2.58078  -0.38335
H    -6.16496  -2.29148   1.87725
H    -5.11998  -0.88811   2.17309
H    -7.18914  -1.09054  -0.08087
H    -7.42453  -0.27639   1.46180
H    -5.45891   1.26496   0.91145
H    -6.84780   1.43304  -0.19848
H    -5.40394   0.55157  -0.71231
