26

O     1.30329   2.23537  -0.69938
C     1.41939   1.36918   0.15098
N     0.42560   1.04354   1.02895
C    -0.92947   1.51175   0.84347
C    -1.83623   0.40193   0.36816
C    -1.55278  -0.24942  -0.83982
C    -2.33302  -1.31851  -1.26828
C    -3.41732  -1.74950  -0.50119
C    -3.71511  -1.10097   0.69466
C    -2.92694  -0.03169   1.12543
C     2.66584   0.57929   0.27845
C     3.05621  -0.45456   1.19815
C     4.28919  -0.86332   0.79396
O     4.68231  -0.16657  -0.29471
C     3.70751   0.70041  -0.60021
H     0.55126   0.21603   1.59671
H    -0.86654   2.31586   0.09428
H    -1.31920   1.95262   1.77494
H    -0.71107   0.09434  -1.44774
H    -2.09458  -1.81955  -2.20949
H    -4.02729  -2.59146  -0.83745
H    -4.55885  -1.43564   1.30319
H    -3.16151   0.46915   2.06928
H     2.50574  -0.84750   2.05022
H     4.99029  -1.60525   1.16634
H     3.85320   1.34426  -1.46349
