36

C    -0.71189   5.03328  -1.26762
O    -0.93183   3.63221  -1.27848
C    -0.01533   2.89571  -0.65244
O     0.95543   3.35189  -0.10804
C    -0.38326   1.42798  -0.66499
C    -1.64963   1.19880   0.19502
C    -1.97754  -0.25744   0.36297
C    -1.49335  -0.96758   1.46723
C    -1.76026  -2.32768   1.61364
C    -2.52660  -2.99406   0.65926
C    -3.00589  -2.29914  -0.45125
C    -2.72809  -0.94263  -0.59844
N     0.73708   0.65959  -0.22027
C     1.07103  -0.50889  -0.80961
O     0.51481  -0.98232  -1.78419
C     2.22097  -1.21000  -0.14363
C     2.64563  -2.45008  -0.63135
N     3.65130  -3.11059  -0.06675
C     4.23314  -2.53022   0.97882
C     3.81064  -1.29147   1.46843
N     2.80259  -0.63474   0.90693
H    -1.62168   5.49332  -1.66904
H     0.15108   5.29380  -1.89705
H    -0.51414   5.38959  -0.24647
H    -0.60848   1.11757  -1.69722
H    -1.48541   1.65578   1.18465
H    -2.48197   1.73673  -0.28207
H    -0.89980  -0.44578   2.22284
H    -1.37206  -2.86916   2.47986
H    -2.75555  -4.05550   0.78264
H    -3.59810  -2.81842  -1.20868
H    -3.09855  -0.40461  -1.47536
H     1.32007   0.99655   0.54139
H     2.14004  -2.89175  -1.49435
H     5.06446  -3.06286   1.45340
H     4.30104  -0.82818   2.33062
