35

C    -2.89659   0.67802  -2.07283
C    -2.52039   0.46510  -0.61309
C    -1.93395  -0.93337  -0.39691
C    -1.29266  -1.13938   0.97932
C    -2.31119  -1.24759   2.10485
C    -0.26512  -0.00619   1.26428
N    -0.21339   0.95288   0.17964
C     0.73346   0.94412  -0.81060
O     0.51225   1.35427  -1.93769
C     2.09378   0.43518  -0.43919
C     2.74639   0.84556   0.72885
C     4.02869   0.38278   1.01412
C     4.65978  -0.50481   0.14249
C     4.02064  -0.90033  -1.03289
C     2.74886  -0.41800  -1.33096
C    -1.50933   1.52850  -0.11882
H    -1.99548   0.63357  -2.70359
H    -3.61063  -0.08537  -2.41919
H    -3.36300   1.66425  -2.22398
H    -3.43431   0.55873  -0.00246
H    -2.71431  -1.69326  -0.56518
H    -1.17028  -1.11032  -1.17269
H    -0.73824  -2.09175   0.93603
H    -2.90046  -0.32149   2.20744
H    -1.80958  -1.42841   3.06945
H    -3.01699  -2.07501   1.93466
H     0.73293  -0.42493   1.43221
H    -0.54664   0.53482   2.18561
H     2.24404   1.53580   1.41067
H     4.53806   0.71747   1.92085
H     5.65604  -0.88602   0.37883
H     4.51965  -1.58233  -1.72553
H     2.24289  -0.70008  -2.25684
H    -1.87132   2.00631   0.80714
H    -1.36390   2.31099  -0.87410
