29

O     0.57741  -0.59347   1.96075
C     0.87693  -0.63858   0.77965
N     0.02383  -1.07619  -0.18638
C    -1.29969  -1.56357   0.12775
C    -2.39937  -0.53699  -0.00998
C    -2.37352   0.63371   0.76106
C    -3.39517   1.57326   0.64921
C    -4.45881   1.35687  -0.23008
C    -4.49285   0.19516  -0.99886
C    -3.46556  -0.74327  -0.88958
C     2.23170  -0.22001   0.29487
C     2.94344   0.70956   1.05888
C     4.21224   1.12576   0.67039
C     4.78890   0.58010  -0.47854
I     6.71579   1.18199  -1.05870
C     4.10431  -0.36596  -1.24172
C     2.82750  -0.76027  -0.84923
H     0.24430  -0.86625  -1.15087
H    -1.25219  -1.91612   1.16896
H    -1.51927  -2.43354  -0.50994
H    -1.54857   0.79370   1.46098
H    -3.36284   2.48253   1.25452
H    -5.26210   2.09370  -0.31200
H    -5.32289   0.01106  -1.68584
H    -3.50319  -1.65850  -1.48842
H     2.48077   1.10236   1.96628
H     4.75635   1.86156   1.26518
H     4.56686  -0.80493  -2.12687
H     2.30602  -1.52367  -1.43228
