41

C    -1.84009  -0.78515  -2.42410
C    -1.21275  -0.45920  -1.07868
C    -1.82693   0.80178  -0.43270
C    -3.27519   0.64272  -0.05853
C    -3.64624  -0.24037   0.96477
C    -4.98233  -0.42415   1.30948
C    -5.97825   0.28277   0.63555
C    -5.62449   1.17239  -0.37728
C    -4.28369   1.34759  -0.72279
C     0.28264  -0.21172  -1.23074
O     0.74884   0.34807  -2.20578
N     1.04234  -0.61612  -0.17747
C     2.45728  -0.33689  -0.08320
C     3.19226  -1.53531   0.52517
C     4.63553  -1.19940   0.95166
C     5.13361   0.09901   0.32512
C     4.24984   1.29222   0.69652
C     2.74678   0.95331   0.68339
H    -1.58869   0.00431  -3.14657
H    -1.45047  -1.73289  -2.82465
H    -2.93409  -0.86384  -2.34203
H    -1.36406  -1.30229  -0.38161
H    -1.24548   1.05536   0.47103
H    -1.69993   1.64451  -1.12952
H    -2.87083  -0.79171   1.50426
H    -5.25042  -1.11515   2.11281
H    -7.02684   0.14225   0.91009
H    -6.39673   1.73477  -0.90691
H    -4.01210   2.04352  -1.52181
H     0.58354  -1.03753   0.61999
H     2.78524  -0.18639  -1.12347
H     3.17314  -2.36279  -0.20161
H     2.62113  -1.89063   1.40210
H     4.69150  -1.10713   2.05015
H     5.31093  -2.02686   0.68375
H     6.17155   0.29597   0.63812
H     5.16212  -0.02048  -0.77125
H     4.53361   1.65656   1.69713
H     4.45915   2.12243   0.00443
H     2.16478   1.76639   0.22344
H     2.36407   0.84014   1.71336
