26

O    -1.15272   0.40067  -1.69099
C    -1.45462   0.33066  -0.51140
N    -0.65646   0.76257   0.50042
C     0.56658   1.48114   0.24439
C     1.83484   0.66687   0.34382
C     1.94987  -0.56021  -0.32028
C     3.15012  -1.26540  -0.29404
C     4.25407  -0.75321   0.38952
C     4.14406   0.46041   1.06428
C     2.93911   1.16247   1.04134
C    -2.75647  -0.21959  -0.08643
C    -3.79480  -0.72326  -0.81959
C    -4.81732  -1.05178   0.11556
C    -4.32296  -0.72186   1.34515
O    -3.08039  -0.21978   1.23170
H    -0.96062   0.61136   1.45368
H     0.47956   1.87553  -0.78056
H     0.62860   2.34486   0.92409
H     1.09464  -0.94670  -0.88028
H     3.22940  -2.21941  -0.82032
H     5.19761  -1.30411   0.39594
H     4.99946   0.86711   1.60939
H     2.85827   2.11880   1.56581
H    -3.80755  -0.83700  -1.90047
H    -5.79507  -1.47729  -0.09811
H    -4.72690  -0.78297   2.35279
