38

C    -0.06780   0.71404   1.20433
N     0.44559   0.72937  -0.14012
C     1.76759   1.30757  -0.31887
C     2.93945   0.36723  -0.16265
C     3.97314   0.66709   0.73034
C     5.10739  -0.14177   0.81135
C     5.21593  -1.26849  -0.00151
C     4.18290  -1.58454  -0.88652
C     3.05291  -0.77388  -0.96985
C    -0.22199   0.32518  -1.26573
O     0.34848   0.28879  -2.34449
C    -1.70406  -0.02369  -1.17557
C    -2.54201   1.23663  -0.81755
C    -3.87278   0.99507  -0.08583
C    -4.32556  -0.45718  -0.11655
C    -3.22567  -1.32336   0.48080
C    -1.98347  -1.34626  -0.40755
H     0.61651   0.16039   1.86876
H    -1.04557   0.22777   1.25277
H    -0.17544   1.73765   1.60622
H     1.87136   2.13821   0.39812
H     1.79210   1.72979  -1.33466
H     3.90092   1.56110   1.35696
H     5.91142   0.11882   1.50462
H     6.10768  -1.89828   0.04755
H     4.26584  -2.46640  -1.52673
H     2.25765  -0.99502  -1.68583
H    -1.92365  -0.23878  -2.22766
H    -1.93365   1.95213  -0.24219
H    -2.74228   1.74402  -1.77294
H    -3.76688   1.27764   0.97591
H    -4.64756   1.66131  -0.49551
H    -4.54437  -0.78518  -1.14895
H    -5.26141  -0.56810   0.45241
H    -2.97733  -0.92126   1.48076
H    -3.57324  -2.35430   0.65033
H    -2.11602  -2.13261  -1.16722
H    -1.10601  -1.66052   0.18014
