37

C    -6.20032   0.78941  -0.55180
C    -5.05713   0.87596   0.44732
C    -3.66418   0.72147  -0.15367
C    -3.35424  -0.66415  -0.71280
C    -1.91759  -0.80994  -1.20519
C    -0.89604  -0.74574  -0.08193
N     0.45200  -0.82842  -0.58661
C     1.52139  -0.68999   0.23756
O     1.40843  -0.39370   1.40943
C     2.86355  -0.98187  -0.42604
C     4.01219  -0.27325   0.22473
C     4.54838   0.88745  -0.33829
C     5.61990   1.54303   0.26621
C     6.16521   1.04384   1.44732
C     5.62538  -0.10473   2.02571
C     4.55420  -0.75533   1.41934
H    -6.26741  -0.20161  -1.02797
H    -6.08048   1.53018  -1.35878
H    -7.16675   0.98321  -0.06103
H    -5.19643   0.11504   1.23615
H    -5.10739   1.84862   0.96443
H    -2.92393   0.97453   0.62252
H    -3.52156   1.47009  -0.95498
H    -3.55225  -1.42503   0.06421
H    -4.04140  -0.89946  -1.54209
H    -1.69751  -0.01868  -1.94432
H    -1.80657  -1.77248  -1.73630
H    -1.08629  -1.55795   0.64419
H    -0.98552   0.18921   0.49119
H     0.59761  -1.17210  -1.52644
H     3.01109  -2.07438  -0.36059
H     2.81356  -0.73261  -1.49776
H     4.11647   1.28299  -1.26242
H     6.03678   2.44241  -0.19301
H     7.00710   1.55359   1.92147
H     6.04701  -0.50128   2.95226
H     4.12293  -1.64823   1.87781
