33

C    -2.29112   2.47082   2.31870
O    -2.14255   1.17796   1.79231
C    -1.45617   1.08909   0.58083
C     0.07342   1.05176   0.83148
O     0.55661   1.60870   1.79450
N     0.79110   0.39077  -0.12528
C     2.16659   0.12813  -0.16673
C     3.07756   0.68154   0.74395
C     4.42745   0.34987   0.64482
C     4.88923  -0.52034  -0.34194
C     3.98112  -1.06587  -1.24853
C     2.63079  -0.74488  -1.16389
C    -1.98244  -0.10408  -0.18145
C    -1.69194  -1.40330   0.25592
C    -2.18548  -2.50761  -0.43243
C    -2.99064  -2.32818  -1.55914
C    -3.29677  -1.04017  -1.99300
C    -2.79134   0.06473  -1.30782
H    -2.93446   2.38395   3.20485
H    -1.32653   2.91015   2.61536
H    -2.79016   3.14240   1.59200
H    -1.64255   1.99721  -0.03104
H     0.24046  -0.08058  -0.83431
H     2.71035   1.34817   1.52176
H     5.12934   0.78247   1.36158
H     5.94844  -0.78044  -0.40263
H     4.32586  -1.75127  -2.02690
H     1.92133  -1.18176  -1.87215
H    -1.06757  -1.54534   1.14164
H    -1.93814  -3.51397  -0.08501
H    -3.37962  -3.19282  -2.10164
H    -3.92668  -0.89060  -2.87318
H    -3.03561   1.07359  -1.65261
