42

C     0.11993   0.39712   0.82224
C     0.08220  -1.08603   1.20169
N     1.01827  -1.90667   0.48097
C     2.30980  -1.66176   0.13811
O     2.91114  -2.32420  -0.67744
O     2.82765  -0.61977   0.81838
C     4.00313   0.06727   0.31603
C     3.71675   0.59730  -1.08517
C     4.17945   1.21115   1.30208
C     5.22670  -0.84044   0.33458
C    -1.30715  -1.65144   0.86022
O    -1.44444  -2.53255   0.02984
N    -2.35196  -1.06798   1.49899
C    -3.70162  -1.18449   0.97908
C    -4.07423  -0.00233   0.11405
C    -5.10948   0.86476   0.47312
C    -5.41667   1.97437  -0.31665
C    -4.68225   2.23339  -1.47145
C    -3.64613   1.37251  -1.83988
C    -3.34675   0.26191  -1.05589
H    -0.06156   0.52116  -0.25596
H    -0.64255   0.97246   1.36411
H     1.09887   0.81997   1.06786
H     0.23082  -1.18313   2.29537
H     0.57293  -2.65185  -0.05212
H     3.53382  -0.22904  -1.78415
H     4.57755   1.17823  -1.44753
H     2.83874   1.26087  -1.07642
H     5.05951   1.81435   1.03499
H     4.32225   0.81344   2.31809
H     3.29860   1.87113   1.30462
H     6.11340  -0.26402   0.02869
H     5.09054  -1.68776  -0.34654
H     5.39911  -1.22956   1.34953
H    -2.15542  -0.26116   2.07788
H    -3.72429  -2.11544   0.39457
H    -4.41272  -1.29355   1.81146
H    -5.68630   0.67080   1.38150
H    -6.22976   2.64274  -0.02315
H    -4.91901   3.10214  -2.09018
H    -3.07157   1.56767  -2.74859
H    -2.54762  -0.42177  -1.35632
