33

O    -0.16124   1.62684  -1.28368
C    -0.07409   0.47617  -0.88731
C     1.14497  -0.07283  -0.24060
C     2.25436   0.67770  -0.15666
C     3.56192   0.29175   0.36690
C     4.57278   1.26369   0.43499
C     5.84768   0.94324   0.89259
C     6.13848  -0.36059   1.28929
C     5.14329  -1.33860   1.23230
C     3.86989  -1.01651   0.77911
N    -1.07792  -0.43610  -1.03507
C    -2.30747  -0.14174  -1.72928
C    -3.52237  -0.09470  -0.83424
C    -4.52730  -1.06161  -0.93332
C    -5.65017  -1.01116  -0.10540
C    -5.77748   0.01339   0.83062
C    -4.77699   0.98278   0.93860
C    -3.65495   0.92714   0.11546
H     1.12088  -1.10315   0.12745
H     2.16320   1.69623  -0.55070
H     4.34539   2.28272   0.11134
H     6.61941   1.71513   0.93810
H     7.13633  -0.61883   1.65173
H     5.36793  -2.35965   1.55014
H     3.10439  -1.79447   0.72934
H    -0.96543  -1.35192  -0.62224
H    -2.46856  -0.88289  -2.53033
H    -2.14944   0.83632  -2.20729
H    -4.43474  -1.86190  -1.67473
H    -6.42989  -1.77204  -0.19954
H    -6.66170   0.06589   1.47073
H    -4.88114   1.79327   1.66469
H    -2.87041   1.68634   0.19430
