27

O    -0.00724  -0.87705   2.35445
C     0.06681  -0.47667   1.20514
C     1.40824  -0.25209   0.56754
C     2.32120  -1.31095   0.60111
C     3.59764  -1.15549   0.06816
C     3.98480   0.07130  -0.47022
C     3.09301   1.14250  -0.47149
C     1.80533   0.98032   0.03801
N    -1.04371  -0.24420   0.44362
C    -1.05313   0.00835  -0.99185
C    -2.47656   0.37864  -1.40639
O    -3.02336   1.28988  -0.49891
C    -3.22703   0.74433   0.78922
C    -2.34241  -0.46765   1.04043
H     2.01941  -2.25313   1.06333
H     4.29849  -1.99370   0.08168
H     4.98698   0.19606  -0.88697
H     3.40319   2.10721  -0.88028
H     1.11185   1.82574   0.04365
H    -0.70389  -0.87161  -1.56459
H    -0.38223   0.84216  -1.23723
H    -3.10753  -0.52643  -1.50578
H    -2.46301   0.86633  -2.39169
H    -4.28918   0.46289   0.93256
H    -2.98958   1.54252   1.51002
H    -2.19246  -0.64382   2.11305
H    -2.79544  -1.38537   0.62431
