64

C     7.91513   1.91600   1.19371
C     7.00498   1.82060   0.22308
C     6.13219   2.93734  -0.25609
C     4.64440   2.63437  -0.11297
C     4.16325   1.55584  -1.07064
O     4.69546   1.34869  -2.14546
N     3.06451   0.87935  -0.64605
C     2.41724  -0.13114  -1.45005
C     1.58795  -1.17027  -0.65955
C     2.33344  -1.51964   0.63442
C     1.50699  -2.40853  -1.56996
C     0.52794  -3.46338  -1.08374
C    -0.87069  -2.89228  -0.89792
C    -0.91201  -1.67678   0.04956
C    -0.69233  -2.14002   1.50170
C    -2.30303  -1.03241   0.03156
C    -3.45110  -1.83656   0.03307
C    -4.73010  -1.29597   0.09699
C    -4.91832   0.08642   0.17507
C    -6.30107   0.69620   0.24392
C    -6.50483   1.48173   1.53902
C    -6.59095   1.53868  -0.99805
C    -3.77726   0.88618   0.18055
C    -2.48499   0.35867   0.10527
C    -1.32697   1.31588   0.05532
C     0.02274   0.66828   0.30753
C     0.13537  -0.64336  -0.46064
H     8.52358   1.05931   1.49628
H     8.09489   2.85984   1.72002
H     6.86245   0.85943  -0.28701
H     6.37675   3.86221   0.28850
H     6.32766   3.11305  -1.32736
H     4.05780   3.54013  -0.34805
H     4.40125   2.35886   0.92709
H     2.70728   1.08813   0.27466
H     3.21740  -0.64662  -2.00585
H     1.77157   0.33838  -2.21615
H     1.99545  -2.47125   1.05986
H     2.20715  -0.75961   1.42071
H     3.41211  -1.61366   0.43484
H     2.51507  -2.83904  -1.68879
H     1.19296  -2.07112  -2.57420
H     0.88722  -3.90787  -0.14051
H     0.49467  -4.29701  -1.80350
H    -1.26865  -2.57665  -1.87846
H    -1.54230  -3.68359  -0.53273
H    -0.62717  -1.28824   2.19343
H    -1.54994  -2.74864   1.82324
H     0.20850  -2.75214   1.62645
H    -3.34693  -2.92306  -0.01105
H    -5.59928  -1.96005   0.09096
H    -7.01830  -0.14254   0.24966
H    -5.80882   2.33188   1.61062
H    -7.52673   1.88796   1.60125
H    -6.33472   0.83855   2.41587
H    -7.61589   1.94196  -0.97916
H    -5.90104   2.39335  -1.07405
H    -6.47476   0.93533  -1.91142
H    -3.88238   1.97394   0.24665
H    -1.50014   2.14407   0.76061
H    -1.31614   1.78024  -0.94781
H     0.79804   1.37471  -0.01722
H     0.17076   0.50032   1.38751
H    -0.19699  -0.41414  -1.49204
