39

O     1.89396  -1.90091  -0.18872
C     1.95310  -0.84186  -0.78725
C     3.20364  -0.41736  -1.53719
C     4.25325   0.14504  -0.60547
C     4.90561   1.34281  -0.91121
C     5.90758   1.84354  -0.08036
C     6.26089   1.15758   1.07928
C     5.60468  -0.03116   1.39997
C     4.60934  -0.53518   0.56645
N     0.93949   0.06226  -0.78376
C    -0.26850  -0.15198  -0.02363
C    -1.41820  -0.75117  -0.83878
C    -2.64919  -0.94960  -0.01212
C    -2.84854  -1.89973   0.96302
N    -4.07852  -1.72262   1.55037
C    -4.71064  -0.65309   0.97323
C    -5.96389  -0.08888   1.23107
C    -6.34143   1.00887   0.47070
C    -5.49844   1.53110  -0.53025
C    -4.25364   0.97246  -0.78025
C    -3.83724  -0.13615  -0.02242
H     3.59261  -1.32187  -2.03051
H     2.97306   0.31597  -2.32402
H     4.63246   1.88737  -1.81931
H     6.41275   2.77594  -0.34354
H     7.04354   1.54831   1.73406
H     5.87598  -0.57487   2.30829
H     4.09199  -1.46465   0.81621
H     1.06036   0.92732  -1.29233
H    -0.01249  -0.84119   0.79352
H    -0.58829   0.79871   0.43298
H    -1.64668  -0.08848  -1.68915
H    -1.07115  -1.70327  -1.27145
H    -2.18852  -2.70296   1.28803
H    -4.46441  -2.30238   2.28025
H    -6.62354  -0.49768   1.99993
H    -7.31162   1.47684   0.65268
H    -5.83327   2.39249  -1.11312
H    -3.60591   1.39031  -1.55520
