39

C    -2.72925  -2.13374  -2.09070
C    -2.68372  -1.51996  -0.70046
C    -3.64290  -0.34658  -0.55175
C    -3.64055   0.25034   0.87083
C    -3.72330   1.76899   0.83391
C    -2.41090  -0.22860   1.65466
N    -1.21724  -0.25914   0.83463
C    -0.08999   0.38770   1.27398
O    -0.07340   1.03718   2.30979
C     1.13065   0.23713   0.43653
C     2.27292   0.82999   0.82306
C     3.58156   0.71656   0.18362
C     3.82451  -0.13237  -0.91130
C     5.10287  -0.27000  -1.43633
C     6.16958   0.44421  -0.88538
C     5.94261   1.31069   0.18264
C     4.66158   1.44139   0.71304
C    -1.26471  -1.05475  -0.38216
H    -2.02396  -2.97309  -2.18966
H    -3.73534  -2.51225  -2.32577
H    -2.46694  -1.38423  -2.85574
H    -2.97145  -2.29801   0.02881
H    -3.33881   0.43171  -1.27522
H    -4.65946  -0.65430  -0.84654
H    -4.52042  -0.13416   1.41367
H    -2.80594   2.19579   0.39624
H    -4.57358   2.11168   0.22371
H    -3.83815   2.19274   1.84288
H    -2.59513  -1.23480   2.07195
H    -2.19149   0.43753   2.49871
H     1.10135  -0.37479  -0.46599
H     2.21582   1.43382   1.73565
H     3.00190  -0.70365  -1.34622
H     5.27622  -0.94137  -2.28076
H     7.17472   0.32363  -1.29670
H     6.76925   1.87978   0.61400
H     4.48463   2.10525   1.56320
H    -0.91467  -0.44473  -1.23392
H    -0.59907  -1.93550  -0.31422
