35

O    -0.06961   1.39602   1.70279
C    -0.23817   0.23766   1.36524
N     0.75671  -0.69081   1.39292
C     2.13444  -0.33422   1.64915
C     2.94980  -0.22642   0.38361
C     2.66092   0.78499  -0.54465
C     3.37227   0.87095  -1.73815
C     4.38004  -0.05393  -2.02325
C     4.67887  -1.05742  -1.10419
C     3.96385  -1.14260   0.09246
C    -1.56415  -0.25407   0.80622
C    -1.57843   0.11323  -0.68788
C    -2.88223  -0.27893  -1.38457
C    -4.12774   0.00980  -0.52401
C    -3.80743   0.96624   0.61653
C    -2.75337   0.38265   1.55287
H     0.56972  -1.59641   0.98230
H     2.10173   0.63607   2.16548
H     2.58764  -1.06783   2.33389
H     1.87156   1.50692  -0.31461
H     3.13951   1.66341  -2.45404
H     4.93448   0.01152  -2.96222
H     5.46959  -1.78004  -1.32140
H     4.19997  -1.93091   0.81400
H    -1.61137  -1.35384   0.89736
H    -1.42352   1.20179  -0.76113
H    -0.71843  -0.35112  -1.19665
H    -2.94007   0.26920  -2.33756
H    -2.85149  -1.34691  -1.65605
H    -4.51683  -0.92951  -0.09474
H    -4.93832   0.41371  -1.15099
H    -4.71593   1.20903   1.18942
H    -3.44716   1.92218   0.20120
H    -2.36493   1.17625   2.20762
H    -3.22178  -0.37626   2.20166
