37

C    -5.98303  -0.36367   0.94458
C    -4.72869   0.16497   1.62644
C    -3.64838   0.67387   0.67508
C    -3.02576  -0.40906  -0.20043
C    -1.85742   0.05782  -1.06058
C    -0.63997   0.48172  -0.25757
C     0.62238   0.60752  -1.09155
O     0.74118   0.11731  -2.19957
N     1.62607   1.29122  -0.47749
C     2.96099   1.37680  -1.02526
C     3.87672   0.29419  -0.50808
C     4.91540   0.58244   0.38094
C     5.70482  -0.44039   0.90854
C     5.45984  -1.76372   0.54857
C     4.43312  -2.05924  -0.35200
C     3.64923  -1.03793  -0.87984
H    -5.76553  -1.20862   0.27379
H    -6.46683   0.42102   0.33953
H    -6.71929  -0.71474   1.68326
H    -4.29262  -0.62460   2.26530
H    -5.01049   0.98020   2.31373
H    -2.85928   1.16037   1.27450
H    -4.06491   1.46908   0.02929
H    -2.68562  -1.23940   0.44570
H    -3.79699  -0.84089  -0.85892
H    -2.17611   0.88857  -1.71351
H    -1.54225  -0.74568  -1.74281
H    -0.42418  -0.27710   0.51761
H    -0.80972   1.42512   0.28671
H     1.49360   1.56558   0.48687
H     2.85331   1.29684  -2.11693
H     3.37959   2.36807  -0.79186
H     5.11060   1.61984   0.67027
H     6.51282  -0.19852   1.60375
H     6.07404  -2.56513   0.96511
H     4.24130  -3.09336  -0.65023
H     2.84225  -1.26080  -1.58340
