32

C    -1.82686  -1.50051   0.97037
C    -2.53220  -0.27051   0.46093
C    -3.83951  -0.03568   0.90982
C    -4.57036   1.07624   0.50399
C    -4.00000   1.99855  -0.37066
C    -2.69852   1.79837  -0.80892
C    -1.95792   0.67504  -0.41704
C    -0.55724   0.65660  -0.96670
O     0.00129   1.69890  -1.27203
N     0.03875  -0.54776  -1.15682
C     1.38858  -0.64176  -1.67549
C     2.46084  -0.44108  -0.62941
C     3.06097  -1.53431   0.00257
C     4.03728  -1.34339   0.98097
C     4.42223  -0.05217   1.33823
C     3.82587   1.04431   0.71517
C     2.85168   0.85326  -0.26259
H    -2.33443  -1.88860   1.86347
H    -0.77846  -1.30466   1.23595
H    -1.84627  -2.32107   0.22940
H    -4.28796  -0.74836   1.60788
H    -5.58362   1.22806   0.88357
H    -4.56223   2.87440  -0.70151
H    -2.20363   2.51883  -1.46287
H    -0.45068  -1.39270  -0.90548
H     1.50129  -1.62971  -2.14560
H     1.49576   0.11896  -2.46280
H     2.76150  -2.54835  -0.28130
H     4.50463  -2.20439   1.46455
H     5.18940   0.10399   2.10092
H     4.12772   2.05690   0.99569
H     2.36219   1.70272  -0.74399
