39

C    -3.04256  -0.91529   2.59517
C    -2.67864   0.53703   2.34287
C    -1.96414   0.80979   1.00997
C    -0.53074   0.27154   1.02338
O    -0.00353  -0.24686   1.98515
N     0.14325   0.53008  -0.13487
O     1.37882  -0.00853  -0.34589
C     2.37644   0.76067   0.32779
C     3.72315   0.26869  -0.09663
C     4.33392  -0.79154   0.57974
C     5.58254  -1.25979   0.17689
C     6.23106  -0.67118  -0.90915
C     5.62858   0.38642  -1.59052
C     4.37953   0.84999  -1.18570
C    -2.74685   0.33779  -0.19592
C    -3.74518   1.14576  -0.75172
C    -4.49961   0.70626  -1.83798
C    -4.26289  -0.55206  -2.38956
C    -3.27137  -1.36621  -1.84450
C    -2.52788  -0.92951  -0.75081
H    -3.70237  -1.30990   1.80771
H    -3.57306  -1.01924   3.55386
H    -2.13893  -1.53885   2.63739
H    -2.02299   0.90349   3.14812
H    -3.58738   1.16012   2.36286
H    -1.85977   1.90561   0.91926
H    -0.35424   0.74057  -0.99364
H     2.24749   1.82355   0.05681
H     2.23801   0.64143   1.41468
H     3.81726  -1.24842   1.42811
H     6.05649  -2.08284   0.71682
H     7.20863  -1.04011  -1.22867
H     6.13819   0.85571  -2.43533
H     3.90235   1.67859  -1.71645
H    -3.93321   2.13586  -0.32571
H    -5.26967   1.35531  -2.26184
H    -4.84511  -0.89556  -3.24768
H    -3.06973  -2.35017  -2.27394
H    -1.75596  -1.57809  -0.32706
