32

O     0.80842  -0.34169   1.90405
C     0.74581  -0.76438   0.76803
C     1.95639  -0.86822  -0.14224
C     2.95142   0.25239  -0.03311
C     2.54025   1.57923   0.13787
C     3.47379   2.61107   0.15302
C     4.83262   2.33362   0.00307
C     5.25370   1.01520  -0.15443
C     4.31638  -0.01507  -0.16953
N    -0.41016  -1.22126   0.20966
C    -1.62152  -1.36680   0.97129
C    -2.85257  -0.89928   0.24351
C    -4.06957  -1.55735   0.45392
C    -5.24257  -1.08755  -0.13222
C    -5.21224   0.04082  -0.95249
C    -3.99854   0.68449  -1.19260
C    -2.82879   0.21664  -0.59897
H     1.62799  -0.96639  -1.19239
H     2.45328  -1.82016   0.11382
H     1.48124   1.80478   0.28689
H     3.13749   3.64076   0.29906
H     5.56088   3.14775   0.01822
H     6.31628   0.78239  -0.26389
H     4.65058  -1.04878  -0.29784
H    -0.38486  -1.60372  -0.72632
H    -1.76175  -2.41526   1.29213
H    -1.46841  -0.78276   1.89130
H    -4.09569  -2.44915   1.08645
H    -6.18478  -1.60872   0.05296
H    -6.13065   0.41566  -1.40981
H    -3.96588   1.56815  -1.83501
H    -1.87863   0.72347  -0.78448
