41

C     4.96687  -0.45600   0.28331
C     3.50670  -0.86495   0.13023
C     3.23912  -1.41727  -1.26506
C     2.61060   0.33336   0.46327
N     1.19507   0.09671   0.32316
C     0.53089   0.47573  -0.79815
O     1.05591   1.08269  -1.71002
C    -0.96736   0.12856  -0.86594
C    -1.42938  -0.94494   0.10027
C    -1.02140  -2.26875  -0.12460
C    -1.43659  -3.30034   0.71186
C    -2.27880  -3.02788   1.79189
C    -2.68469  -1.71702   2.03094
C    -2.26182  -0.68334   1.19359
C    -1.77339   1.40829  -0.82550
C    -1.51997   2.39591   0.13444
C    -2.26829   3.57104   0.15886
C    -3.27745   3.77779  -0.78207
C    -3.53985   2.79898  -1.73948
C    -2.79351   1.62131  -1.75652
H     5.18474  -0.07264   1.29332
H     5.63994  -1.30436   0.08705
H     5.22080   0.34137  -0.43342
H     3.28884  -1.66358   0.86466
H     3.40439  -0.64597  -2.03267
H     2.20293  -1.77155  -1.37133
H     3.90464  -2.26707  -1.47968
H     2.84954   1.16098  -0.22191
H     2.82042   0.67967   1.48943
H     0.70752  -0.48134   0.99747
H    -1.07396  -0.28348  -1.88176
H    -0.37690  -2.49377  -0.97964
H    -1.10963  -4.32329   0.50783
H    -2.62181  -3.83596   2.44180
H    -3.34800  -1.49118   2.86965
H    -2.60581   0.33616   1.37907
H    -0.71461   2.24824   0.85945
H    -2.05047   4.33702   0.90768
H    -3.85267   4.70647  -0.77579
H    -4.32497   2.95842  -2.48279
H    -2.99778   0.85600  -2.51124
