60

C    -6.73841   0.06763  -0.27684
C    -5.45618   0.82675  -0.59812
C    -4.67653   1.19913   0.65856
C    -5.76238   2.06374  -1.42973
O    -4.59638   0.05324  -1.47123
C    -4.04702  -1.10058  -1.05847
O    -4.46328  -1.79878  -0.15961
N    -2.95989  -1.38582  -1.83001
C    -1.99335  -2.37958  -1.43321
C    -0.80811  -1.80087  -0.65587
C    -1.17394  -1.14293   0.64129
C    -2.09985  -1.57421   1.56652
N    -2.15288  -0.70278   2.62184
C    -1.24937   0.31305   2.42192
C    -0.91013   1.41376   3.21511
C     0.10338   2.24760   2.77441
C     0.76767   2.00253   1.55384
O     1.78010   2.86816   1.26224
C     2.66480   2.52100   0.24794
C     3.29287   1.13648   0.46117
O     3.57159   0.72413   1.56532
N     3.48144   0.42265  -0.68090
C     4.00155  -0.92785  -0.65912
C     5.50378  -1.02875  -0.75209
C     6.28126  -1.02584   0.41106
C     7.66897  -1.11716   0.33032
C     8.29499  -1.20212  -0.91289
C     7.52887  -1.19829  -2.07732
C     6.14027  -1.11581  -1.99437
C     0.40028   0.93902   0.73928
C    -0.61053   0.06573   1.18078
H    -7.42482   0.72431   0.27864
H    -6.52425  -0.82399   0.32305
H    -7.23837  -0.24686  -1.20529
H    -3.74603   1.72251   0.39193
H    -4.41437   0.30673   1.24155
H    -5.27815   1.86752   1.29161
H    -4.83347   2.58371  -1.70585
H    -6.39774   2.75793  -0.86127
H    -6.29014   1.78249  -2.35267
H    -2.65271  -0.62852  -2.42766
H    -2.53448  -3.12043  -0.82761
H    -1.62097  -2.90981  -2.32579
H    -0.07340  -2.61171  -0.49719
H    -0.29326  -1.06493  -1.29880
H    -2.77418  -2.42556   1.52294
H    -2.75600  -0.80593   3.42397
H    -1.40867   1.60460   4.16796
H     0.43869   3.09593   3.37299
H     2.18600   2.58639  -0.74988
H     3.47674   3.26405   0.28359
H     3.28024   0.85664  -1.57125
H     3.65652  -1.38077   0.28136
H     3.53660  -1.48382  -1.48719
H     5.78232  -0.94001   1.37983
H     8.26663  -1.12658   1.24476
H     9.38336  -1.28113  -0.97600
H     8.01662  -1.27358  -3.05252
H     5.54116  -1.13140  -2.91025
H     0.91264   0.73878  -0.20159
