20

C     3.03950  -0.78710   6.34993
S     1.92821  -0.82013   4.91073
C     3.00012  -1.14245   3.53123
C     4.37915  -1.04276   3.65048
C     5.19409  -1.30961   2.56518
C     4.63657  -1.67716   1.35466
C     3.26056  -1.77287   1.24375
C     2.40698  -1.50845   2.31276
B     0.82946  -1.62607   2.07209
O     0.32795  -2.60012   1.27746
O    -0.07386  -0.76499   2.58017
H     3.63784  -1.69293   6.37559
H     2.38277  -0.75371   7.21394
H     3.66432   0.10120   6.33214
H     4.83359  -0.75013   4.58331
H     6.26562  -1.22573   2.67195
H     5.26741  -1.88676   0.50401
H     2.82700  -2.04804   0.29132
H     0.96695  -3.21389   0.91866
H     0.25701  -0.08354   3.16225
