16

O    -2.70867  -0.45601   1.42018
B    -2.07571   0.19149   0.43409
O    -2.81337   1.06203  -0.28105
C    -0.50359   0.02025   0.11219
C     0.23902   1.16219  -0.18748
C     1.58989   1.09905  -0.47135
F     2.26132   2.22726  -0.74544
C     2.24377  -0.12788  -0.47813
F     3.54999  -0.20571  -0.76069
C     1.53892  -1.28109  -0.19088
C     0.18792  -1.18965   0.10438
Br   -0.71456  -2.82395   0.48809
H    -2.22792  -1.10642   1.93046
H    -2.37955   1.52827  -0.99306
H    -0.23624   2.13166  -0.18268
H     2.04900  -2.23149  -0.19854
