19

O    -1.40354   2.63909   1.02461
C    -0.52651   1.83035   0.84111
O     0.77055   2.16795   0.97714
C    -0.73783   0.41658   0.47902
C    -2.02387  -0.10085   0.62431
C    -2.27887  -1.42195   0.31778
C    -1.24633  -2.22705  -0.13728
C     0.02801  -1.70824  -0.29157
C     0.31292  -0.37980   0.00737
B     1.76985   0.21100  -0.21541
O     2.73176  -0.12137   0.67504
O     1.98705   0.93573  -1.33894
H     0.83344   3.11099   1.19814
H    -2.80420   0.55276   0.98446
H    -3.27410  -1.82491   0.43281
H    -1.43641  -3.26345  -0.37644
H     0.82211  -2.34452  -0.65348
H     3.60738   0.23918   0.52780
H     2.86889   1.28870  -1.46715
