23

O    -2.58890   0.93592   0.89043
C    -2.32903  -0.26481   0.20510
C    -1.38232  -0.09268  -0.99037
C    -0.05771   0.46684  -0.55305
C     0.19840   1.81770  -0.74642
C     1.38049   2.39495  -0.32011
C     2.32675   1.61476   0.31896
C     2.07804   0.27017   0.51822
C     0.89562  -0.33561   0.08934
B     0.73762  -1.88257   0.37268
O    -0.05125  -2.67140  -0.40634
O     1.46202  -2.38826   1.40328
H    -2.83530   1.60895   0.24578
H    -1.87564  -0.93079   0.94163
H    -3.27274  -0.71393  -0.14331
H    -1.84707   0.57922  -1.71783
H    -1.24048  -1.06748  -1.45277
H    -0.53996   2.43214  -1.24451
H     1.55844   3.44824  -0.48337
H     3.25315   2.05224   0.66167
H     2.81112  -0.34167   1.02166
H    -0.07031  -3.60373  -0.18431
H     1.38896  -3.32830   1.57362
