24

C    -2.08800  -1.65937  -0.30196
C    -1.56859  -0.80723   0.85835
C    -0.21883  -0.24352   0.52424
C     0.91743  -0.91715   0.94563
C     2.17939  -0.44419   0.61461
N     3.34512  -1.15922   1.06236
O     3.17480  -2.16442   1.72051
O     4.43211  -0.71677   0.75278
C     2.33025   0.70786  -0.14552
C     1.19594   1.36668  -0.57417
C    -0.08806   0.91631  -0.25451
B    -1.32363   1.75529  -0.81314
O    -1.34971   2.21482  -2.09165
O    -2.35537   2.06492  -0.00731
H    -1.40104  -2.47732  -0.51105
H    -3.06101  -2.07776  -0.05603
H    -2.18714  -1.05173  -1.19944
H    -2.26507   0.00735   1.04937
H    -1.49518  -1.42522   1.75431
H     0.83795  -1.81579   1.53952
H     3.32010   1.06174  -0.38805
H     1.30622   2.26740  -1.16194
H    -0.60601   1.99547  -2.64991
H    -3.03169   2.60176  -0.42341
