16

O    -2.80658  -0.85886   0.58397
B    -2.05294  -0.00947  -0.15268
O    -2.63752   0.81813  -1.02316
C    -0.45566   0.01810  -0.04751
C     0.27906  -1.15853   0.07369
C     1.65908  -1.14077   0.13936
F     2.33146  -2.29485   0.25230
C     2.35984   0.05976   0.09546
F     3.69372   0.07970   0.16346
C     1.64522   1.24703  -0.01675
F     2.29729   2.41336  -0.05261
C     0.25510   1.21364  -0.08963
F    -0.39419   2.37897  -0.17734
H    -2.35872  -1.43085   1.20428
H    -3.59451   0.77917  -1.05281
H    -0.22067  -2.11444   0.09997
