17

N     1.08167   2.98277   1.04585
C     0.47766   2.05929   0.72611
C    -0.28239   0.93415   0.34094
C    -1.67321   1.03785   0.41290
C    -2.46225  -0.03607   0.05292
C    -1.86557  -1.21147  -0.37750
C    -0.48705  -1.30684  -0.44932
C     0.34543  -0.24648  -0.09613
B     1.92212  -0.43343  -0.21229
O     2.86360   0.47234   0.13471
O     2.34635  -1.61710  -0.70933
H    -2.11842   1.96249   0.75118
H    -3.53774   0.04325   0.10734
H    -2.47889  -2.05475  -0.65877
H    -0.02222  -2.22016  -0.78629
H     2.59067   1.32121   0.48391
H     3.30024  -1.68694  -0.76644
