22

O     2.99857   0.63032   0.97160
B     2.52081  -0.28959   0.08326
O     3.41075  -0.91186  -0.71518
C     0.99654  -0.71966  -0.00297
C     0.68802  -2.06140   0.03176
C    -0.63667  -2.51836   0.04405
C    -1.67130  -1.62689   0.02081
C    -1.41747  -0.24136  -0.04053
C    -2.46939   0.69755  -0.09019
C    -2.21286   2.03651  -0.17349
C    -0.88759   2.49407  -0.22235
C     0.15286   1.60877  -0.16953
C    -0.07295   0.21830  -0.06221
H     2.35429   1.04252   1.54540
H     4.31763  -0.63362  -0.57724
H     1.49304  -2.78074   0.05837
H    -0.83029  -3.58078   0.07813
H    -2.69720  -1.96718   0.04098
H    -3.48697   0.33308  -0.06807
H    -3.02385   2.74915  -0.21241
H    -0.69596   3.55410  -0.30712
H     1.16999   1.96707  -0.23297
