14

B     2.63793   0.14230  -0.12233
O     1.81484   1.21815   0.09910
C     0.54888   0.72191   0.08876
C    -0.65808   1.36981   0.26034
C    -1.80243   0.58863   0.19527
C    -1.73939  -0.78021  -0.03153
C    -0.52827  -1.43416  -0.20425
C     0.61229  -0.65903  -0.13991
O     1.91801  -1.01658  -0.27147
H     3.79275   0.20468  -0.17742
H    -0.70309   2.43211   0.43594
H    -2.76566   1.05828   0.32359
H    -2.65469  -1.35021  -0.07546
H    -0.47309  -2.49598  -0.38064
