20

N     1.35258  -1.95578  -0.76340
C     0.43107  -1.88919   0.22718
O     0.31615  -2.75565   1.06919
C    -0.45100  -0.68387   0.16866
C    -1.81772  -0.86853   0.34352
C    -2.68097   0.20940   0.29102
C    -2.17402   1.48052   0.07904
C    -0.81050   1.66779  -0.06578
C     0.07994   0.59638  -0.02736
B     1.64618   0.86514  -0.10905
O     2.24083   0.95486  -1.32076
O     2.42223   1.03112   0.99100
H     1.46053  -1.21964  -1.43843
H     1.99927  -2.72727  -0.76859
H    -2.18730  -1.86811   0.51660
H    -3.74305   0.06047   0.41713
H    -2.84026   2.32976   0.03591
H    -0.42168   2.66530  -0.21380
H     3.17616   1.16319  -1.27656
H     2.00155   0.94413   1.84457
