15

O     3.67466  -0.77534  -0.07142
B     2.37506  -0.50446  -0.04675
O     1.38356  -1.45767  -0.23567
C     0.21154  -0.79151  -0.13793
C    -1.08103  -1.27478  -0.24754
Cl   -1.38700  -2.92885  -0.54827
C    -2.12344  -0.35361  -0.10205
Cl   -3.74176  -0.89725  -0.22843
C    -1.86807   0.99762   0.14399
Cl   -3.17756   2.08738   0.31453
C    -0.56006   1.47965   0.25421
Cl   -0.24115   3.13235   0.55570
C     0.46689   0.56370   0.10937
O     1.80330   0.75860   0.16882
H     4.26515  -0.03562   0.07164
