20

C    -2.93199  -1.23821   0.42708
O    -2.63694   0.11320   0.16221
C    -1.34032   0.48669   0.07513
C    -0.24151  -0.34458   0.24121
C     1.07977   0.10225   0.13879
B     2.20386  -1.00465   0.37710
O     3.44844  -0.80432   0.85753
O     1.82875  -2.27756   0.11947
C     1.26620   1.44688  -0.15563
I     3.19541   2.29931  -0.41242
C     0.19931   2.31396  -0.33126
C    -1.08473   1.83461  -0.20947
F    -2.11480   2.68364  -0.37460
H    -4.01878  -1.29991   0.43896
H    -2.53856  -1.55059   1.39926
H    -2.53723  -1.89431  -0.35436
H    -0.38003  -1.39168   0.45201
H     3.73725   0.09040   1.03898
H     2.51786  -2.92205   0.28656
H     0.34804   3.35703  -0.56206
