19

C     0.18545   2.07614   0.07301
C    -0.44715   0.71976  -0.05226
C    -1.81962   0.60804  -0.22593
C    -2.42178  -0.62879  -0.37442
C    -1.64563  -1.77339  -0.35904
C    -0.27635  -1.66934  -0.18984
C     0.34618  -0.43407  -0.02835
B     1.91812  -0.38265   0.19688
O     2.73472  -0.75724  -0.80618
O     2.49267  -0.01441   1.37974
H     0.79267   2.14634   0.97395
H     0.84037   2.25937  -0.77805
H    -0.57210   2.85602   0.10259
H    -2.42588   1.50327  -0.24688
H    -3.49196  -0.69655  -0.50680
H    -2.10398  -2.74398  -0.48116
H     0.33091  -2.56313  -0.18255
H     3.66681  -0.72749  -0.58203
H     1.89658   0.22210   2.08744
