16

O     2.87232  -0.94890  -0.40551
B     2.08900   0.14284  -0.25249
O     2.73256   1.33212  -0.27134
C     0.50879   0.03481  -0.06140
C    -0.33439   1.10614  -0.36027
C    -1.70520   1.01576  -0.19958
C    -2.27127  -0.15532   0.27441
C    -1.45711  -1.23200   0.58172
C    -0.08792  -1.13497   0.41148
H     2.41632  -1.78876  -0.40757
H     2.18156   2.10319  -0.14793
H     0.08841   2.02695  -0.74218
H    -2.33389   1.86020  -0.44322
H    -3.34120  -0.22849   0.40359
H    -1.89098  -2.14918   0.95342
H     0.53298  -1.98449   0.66696
