17

O    -2.25215   2.25703  -0.22420
B    -1.67669   1.04990  -0.10340
O    -2.40775  -0.11269   0.01945
C    -1.55986  -1.23822   0.12991
C    -0.15025  -0.72426   0.07422
C     1.02713  -1.44299   0.14672
C     2.22509  -0.74994   0.07272
C     2.23753   0.63037  -0.07093
C     1.05325   1.34447  -0.14240
C    -0.15585   0.66771  -0.06950
H    -3.20941   2.23665  -0.21785
H    -1.77824  -1.92720  -0.69480
H    -1.77396  -1.75113   1.07507
H     1.01577  -2.51759   0.25851
H     3.15906  -1.29025   0.12766
H     3.18319   1.14992  -0.12691
H     1.06323   2.41822  -0.25396
