26

C     4.08824  -2.01114   0.62030
O     2.69617  -1.76568   0.49481
C     2.32037  -0.50275   0.20836
O     3.10580   0.39468   0.04747
C     0.84457  -0.39033   0.11146
C     0.04649  -1.51845   0.26307
C    -1.32640  -1.43257   0.16812
I    -2.40238  -3.24217   0.46408
C    -1.97312  -0.22406  -0.07841
B    -3.54348   0.01961  -0.22293
O    -4.44813  -0.84540  -0.72733
O    -3.97897   1.24321   0.14782
C    -1.16282   0.90068  -0.21448
C     0.22759   0.85617  -0.12653
O     1.02079   1.93005  -0.24934
C     0.44494   3.19919  -0.45752
H     4.28137  -2.99319   0.19229
H     4.36490  -2.00392   1.67648
H     4.65440  -1.24149   0.09211
H     0.52590  -2.46487   0.45607
H    -4.15699  -1.72149  -0.98093
H    -4.92285   1.36636   0.03650
H    -1.66637   1.83722  -0.38717
H    -0.21513   3.48124   0.36810
H    -0.11021   3.23939  -1.39950
H     1.28512   3.88981  -0.50301
