39

C    -0.83303  -2.18076   0.13596
C    -1.71298  -0.98561   0.51557
C    -3.13502  -1.27470   0.03086
N    -1.15481   0.23829  -0.05809
C     0.18092   0.50456   0.45650
C     1.27678  -0.03085  -0.43162
C     1.02874  -0.20980  -1.78585
C     2.01067  -0.67734  -2.63797
C     3.26661  -0.97399  -2.13727
C     3.51850  -0.79939  -0.78987
C     2.54394  -0.32215   0.09025
B     2.94241  -0.13739   1.61242
O     3.80973  -0.98393   2.24052
O     2.45561   0.89412   2.33721
C    -2.03418   1.40252  -0.06116
C    -2.31065   1.99652   1.32868
C    -1.50383   2.48174  -1.00901
H    -0.78058  -2.27206  -0.94543
H     0.17703  -2.07495   0.51930
H    -1.25924  -3.09376   0.54629
H    -1.73138  -0.92125   1.62316
H    -3.41140  -2.28583   0.32107
H    -3.18267  -1.20415  -1.05285
H    -3.86387  -0.59707   0.46750
H     0.30578   0.10799   1.47329
H     0.34250   1.58135   0.53022
H     0.04123   0.01456  -2.15778
H     1.79981  -0.80972  -3.68967
H     4.04449  -1.34028  -2.79163
H     4.50754  -1.02322  -0.40902
H     4.14317  -1.70759   1.71253
H     2.79765   0.92336   3.23234
H    -2.98545   1.06944  -0.48347
H    -3.01035   2.82481   1.24452
H    -2.74569   1.24628   1.98548
H    -1.39467   2.36412   1.78508
H    -2.27583   3.23030  -1.17253
H    -1.23994   2.04048  -1.96577
H    -0.62747   2.98498  -0.60963
