9

O    -2.13170   1.48801  -0.10912
C    -1.16603   0.79984  -0.05830
O     0.11228   1.22886  -0.14894
B     0.96356   0.13853  -0.04566
O     2.27306   0.22902  -0.09789
O     0.22829  -1.04578   0.11848
C    -1.08827  -0.74150   0.12135
O    -1.97642  -1.52022   0.23839
H     2.78524  -0.57675  -0.01820
