16

O     2.69404  -1.17506  -0.11724
B     1.97056  -0.04124  -0.31173
O     2.59817   1.05300  -0.76750
C     0.40356   0.02014  -0.06103
C    -0.38178  -1.08632  -0.39247
C    -1.75456  -1.08909  -0.22924
C    -2.38497   0.03003   0.28601
C    -1.63662   1.14080   0.63208
C    -0.26432   1.12710   0.45380
I     0.79573   2.86092   1.04605
H     2.22438  -1.93864   0.21265
H     3.54215   0.96222  -0.90085
H     0.10304  -1.96070  -0.80649
H    -2.33000  -1.96098  -0.50233
H    -3.45616   0.04303   0.42055
H    -2.12314   2.01480   1.03773
