18

O    -2.39874  -2.40274  -0.16396
N    -2.65283  -1.24427   0.09610
O    -3.76677  -0.81656   0.31144
C    -1.55338  -0.31480   0.15215
C    -1.79364   1.00897   0.49935
C    -0.72609   1.88576   0.54523
C     0.55203   1.44094   0.24823
C     0.80812   0.11176  -0.09945
B     2.29045  -0.35743  -0.43442
O     2.65404  -1.65255  -0.59678
O     3.23290   0.59696  -0.55806
C    -0.27265  -0.76273  -0.14262
H    -2.80131   1.32330   0.72416
H    -0.89144   2.91830   0.81216
H     1.38493   2.12593   0.27874
H     1.97637  -2.31910  -0.49721
H     4.10656   0.26023  -0.76211
H    -0.14867  -1.80198  -0.41306
